#Put Keywords Here, check Charge and Multiplicity.

 B.pdb

0  1
C          -2.29600         4.34800        10.95300
H          -2.28800         3.93100         9.95000
C          -1.91100         5.67500        11.15300
H          -1.61000         6.28200        10.30300
C          -1.91100         6.21800        12.43800
H          -1.60900         7.25000        12.59500
C          -2.30100         5.42800        13.52100
H          -2.30500         5.84300        14.52600
C          -2.68600         4.10400        13.31900
H          -2.98800         3.49300        14.16600
C          -2.68700         3.54700        12.03300
C          -3.19000         2.13500        11.82700
C          -4.72000         2.04100        11.72900
H          -5.02700         0.99100        11.75300
H          -5.14200         2.51900        12.61900
C          -5.29800         2.70500        10.47100
H          -5.06900         3.77500        10.47500
H          -4.82000         2.27400         9.58200
C          -6.81300         2.51600        10.33400
H          -7.09300         1.45600        10.39000
H          -7.15400         2.85700         9.34700
C          -7.62200         3.27600        11.36900
O          -7.18300         4.07200        12.17300
O          -8.93400         2.96400        11.27300
C          -9.80100         3.64900        12.19300
H          -9.73900         4.73100        12.04700
H          -9.52800         3.41500        13.22500
H         -10.80600         3.28800        11.97100
C           3.86800         2.56700        14.29300
H           3.00300         3.12000        13.94100
C           4.47700         2.92400        15.49700
H           4.08300         3.75800        16.07200
C           5.58500         2.21300        15.96100
H           6.05700         2.49000        16.89900
C           6.08100         1.14400        15.21300
H           6.94300         0.58400        15.56600
C           5.47100         0.78800        14.01100
H           5.86100        -0.04600        13.43400
C           4.35700         1.49400        13.53700
C           3.76800         1.14300        12.18900
C           4.52700         1.77200        11.01200
H           5.58100         1.48700        11.10500
H           4.16500         1.35100        10.06900
C           4.41800         3.30200        10.95200
H           4.85900         3.74300        11.85200
H           3.35900         3.59000        10.93400
C           5.09600         3.90000         9.71400
H           4.72400         3.44000         8.79000
H           4.85800         4.96900         9.62800
C           6.60900         3.78400         9.72900
O           7.28600         3.42800        10.67100
O           7.13000         4.15500         8.53800
C           8.56400         4.11200         8.45100
H           9.01500         4.78600         9.18500
H           8.80600         4.43200         7.43700
H           8.93000         3.09800         8.63200
C          -2.47100         1.02300        12.57000
C          -2.36500         1.19400        10.97000
C          -0.98800         1.43900        10.44300
C           0.11600         1.66300        11.25700
C           0.01800         1.51000        12.71600
C          -1.18000         1.13900        13.31400
C          -1.15200         0.15000        14.35000
C          -2.30400        -0.71800        14.19000
C          -3.05700        -0.26700        13.04400
C          -3.62100        -1.20500        12.19200
C          -3.52400        -1.05000        10.72600
C          -2.86900         0.03800        10.16600
C          -1.96500        -0.17700         9.06100
C          -0.81300         0.68700         9.23700
C           0.45900         0.25400         8.84300
C           1.60400         0.53800         9.66900
C           1.43500         1.25100        10.85200
C           2.26100         1.00800        12.07200
C           1.27600         1.00000        13.19400
C           1.30300         0.05800        14.21500
C           0.06400        -0.37500        14.80600
C           0.16700        -1.78900        15.12000
C          -0.94200        -2.62200        14.97700
C          -2.20300        -2.07600        14.50000
C          -2.81800        -3.05000        13.63300
C          -3.50200        -2.61800        12.49000
C          -3.34000        -3.33800        11.24100
C          -3.34700        -2.37200        10.15800
C          -2.51500        -2.56600         9.05000
C          -1.80600        -1.44200         8.49100
C          -0.48500        -1.89500         8.08100
C           0.62100        -1.06600         8.25900
C           1.87800        -1.61200         8.73400
C           2.49900        -0.63300         9.60500
C           3.20400        -1.05000        10.72500
C           3.24900        -0.27300        12.00100
C           3.04800        -1.29600        13.07200
C           2.19900        -1.11000        14.15200
C           1.48300        -2.24100        14.71000
C           1.63400        -3.52200        14.16700
C           0.47800        -4.38800        14.00500
C          -0.78600        -3.94700        14.40300
C          -1.94500        -4.21000        13.56700
C          -1.79500        -4.90300        12.36400
C          -2.51000        -4.45900        11.17800
C          -1.64000        -4.65600        10.02900
C          -1.64200        -3.72700         8.98700
C          -0.38800        -3.31300         8.38300
C           0.81900        -3.84400         8.84200
C           1.97400        -2.98000         9.01500
C           2.68000        -3.41000        10.19800
C           3.25700        -2.45500        11.04000
C           3.16100        -2.60600        12.48100
C           2.49300        -3.70900        13.02400
C           1.88100        -4.69300        12.14700
C           1.97300        -4.54700        10.76300
C           0.81800        -4.81500         9.92300
C          -0.38800        -5.21200        10.50500
C          -0.48400        -5.36300        11.95000
C           0.63000        -5.11200        12.75400

