%Mem=8Gb
%nproc=8
# b3lyp/6-31g* punch=mo iop(3/33=1) nosymm

Automagically prepared Gaussian Input: JMF 12-9-11  'DA/packmol_dimers' project

0 1
C          -2.29600         4.34800         9.15300
H          -2.28800         3.93100         8.15000
C          -1.91100         5.67500         9.35300
H          -1.61000         6.28200         8.50300
C          -1.91100         6.21800        10.63800
H          -1.60900         7.25000        10.79500
C          -2.30100         5.42800        11.72100
H          -2.30500         5.84300        12.72600
C          -2.68600         4.10400        11.51900
H          -2.98800         3.49300        12.36600
C          -2.68700         3.54700        10.23300
C          -3.19000         2.13500        10.02700
C          -4.72000         2.04100         9.92900
H          -5.02700         0.99100         9.95300
H          -5.14200         2.51900        10.81900
C          -5.29800         2.70500         8.67100
H          -5.06900         3.77500         8.67500
H          -4.82000         2.27400         7.78200
C          -6.81300         2.51600         8.53400
H          -7.09300         1.45600         8.59000
H          -7.15400         2.85700         7.54700
C          -7.62200         3.27600         9.56900
O          -7.18300         4.07200        10.37300
O          -8.93400         2.96400         9.47300
C          -9.80100         3.64900        10.39300
H          -9.73900         4.73100        10.24700
H          -9.52800         3.41500        11.42500
H         -10.80600         3.28800        10.17100
C           3.86800         2.56700        12.49300
H           3.00300         3.12000        12.14100
C           4.47700         2.92400        13.69700
H           4.08300         3.75800        14.27200
C           5.58500         2.21300        14.16100
H           6.05700         2.49000        15.09900
C           6.08100         1.14400        13.41300
H           6.94300         0.58400        13.76600
C           5.47100         0.78800        12.21100
H           5.86100        -0.04600        11.63400
C           4.35700         1.49400        11.73700
C           3.76800         1.14300        10.38900
C           4.52700         1.77200         9.21200
H           5.58100         1.48700         9.30500
H           4.16500         1.35100         8.26900
C           4.41800         3.30200         9.15200
H           4.85900         3.74300        10.05200
H           3.35900         3.59000         9.13400
C           5.09600         3.90000         7.91400
H           4.72400         3.44000         6.99000
H           4.85800         4.96900         7.82800
C           6.60900         3.78400         7.92900
O           7.28600         3.42800         8.87100
O           7.13000         4.15500         6.73800
C           8.56400         4.11200         6.65100
H           9.01500         4.78600         7.38500
H           8.80600         4.43200         5.63700
H           8.93000         3.09800         6.83200
C          -2.47100         1.02300        10.77000
C          -2.36500         1.19400         9.17000
C          -0.98800         1.43900         8.64300
C           0.11600         1.66300         9.45700
C           0.01800         1.51000        10.91600
C          -1.18000         1.13900        11.51400
C          -1.15200         0.15000        12.55000
C          -2.30400        -0.71800        12.39000
C          -3.05700        -0.26700        11.24400
C          -3.62100        -1.20500        10.39200
C          -3.52400        -1.05000         8.92600
C          -2.86900         0.03800         8.36600
C          -1.96500        -0.17700         7.26100
C          -0.81300         0.68700         7.43700
C           0.45900         0.25400         7.04300
C           1.60400         0.53800         7.86900
C           1.43500         1.25100         9.05200
C           2.26100         1.00800        10.27200
C           1.27600         1.00000        11.39400
C           1.30300         0.05800        12.41500
C           0.06400        -0.37500        13.00600
C           0.16700        -1.78900        13.32000
C          -0.94200        -2.62200        13.17700
C          -2.20300        -2.07600        12.70000
C          -2.81800        -3.05000        11.83300
C          -3.50200        -2.61800        10.69000
C          -3.34000        -3.33800         9.44100
C          -3.34700        -2.37200         8.35800
C          -2.51500        -2.56600         7.25000
C          -1.80600        -1.44200         6.69100
C          -0.48500        -1.89500         6.28100
C           0.62100        -1.06600         6.45900
C           1.87800        -1.61200         6.93400
C           2.49900        -0.63300         7.80500
C           3.20400        -1.05000         8.92500
C           3.24900        -0.27300        10.20100
C           3.04800        -1.29600        11.27200
C           2.19900        -1.11000        12.35200
C           1.48300        -2.24100        12.91000
C           1.63400        -3.52200        12.36700
C           0.47800        -4.38800        12.20500
C          -0.78600        -3.94700        12.60300
C          -1.94500        -4.21000        11.76700
C          -1.79500        -4.90300        10.56400
C          -2.51000        -4.45900         9.37800
C          -1.64000        -4.65600         8.22900
C          -1.64200        -3.72700         7.18700
C          -0.38800        -3.31300         6.58300
C           0.81900        -3.84400         7.04200
C           1.97400        -2.98000         7.21500
C           2.68000        -3.41000         8.39800
C           3.25700        -2.45500         9.24000
C           3.16100        -2.60600        10.68100
C           2.49300        -3.70900        11.22400
C           1.88100        -4.69300        10.34700
C           1.97300        -4.54700         8.96300
C           0.81800        -4.81500         8.12300
C          -0.38800        -5.21200         8.70500
C          -0.48400        -5.36300        10.15000
C           0.63000        -5.11200        10.95400

