#Put Keywords Here, check Charge and Multiplicity.

 B.pdb

0  1
C           0.65500         4.80700         9.71800
H          -0.27200         4.43100        10.13900
C           1.45700         5.66700        10.47100
H           1.14600         5.95300        11.47200
C           2.65400         6.15300         9.94300
H           3.28000         6.81900        10.53100
C           3.04500         5.77300         8.65800
H           3.97800         6.14200         8.23900
C           2.24300         4.91400         7.90700
H           2.55500         4.61700         6.90900
C           1.03700         4.42300         8.42700
C           0.14300         3.56600         7.55800
C          -0.71100         4.36200         6.55800
H          -1.24100         3.65800         5.91200
H          -0.02600         4.91400         5.90000
C          -1.74300         5.32800         7.18300
H          -2.11100         4.92800         8.13400
H          -2.62100         5.37400         6.53000
C          -1.22800         6.75600         7.38900
H          -0.35900         6.78400         8.05700
H          -0.88600         7.19100         6.44100
C          -2.28400         7.67500         7.97000
O          -3.39100         7.34300         8.33500
O          -1.82900         8.94800         8.04000
C          -2.75100         9.90100         8.59300
H          -3.66200         9.95200         7.98900
H          -2.22800        10.85800         8.57800
H          -3.02200         9.62700         9.61600
C          -3.69900        -2.76300        13.17900
H          -2.89400        -2.20500        13.64900
C          -4.28700        -3.83300        13.85200
H          -3.93700        -4.10400        14.84500
C          -5.32000        -4.55700        13.25100
H          -5.77700        -5.39300        13.77300
C          -5.75700        -4.20300        11.97500
H          -6.55800        -4.76100        11.49700
C          -5.16600        -3.13100        11.30200
H          -5.51000        -2.86600        10.30700
C          -4.13200        -2.39700        11.89700
C          -3.53700        -1.17500        11.23300
C          -4.10400         0.15800        11.75000
H          -3.51500         0.97800        11.33300
H          -3.94400         0.20200        12.83300
C          -5.59300         0.41600        11.42500
H          -5.83900        -0.03000        10.45400
H          -5.73200         1.49600        11.31200
C          -6.60200        -0.07900        12.46800
H          -6.47400        -1.14200        12.70000
H          -7.62600         0.01600        12.08100
C          -6.54400         0.70000        13.76800
O          -5.83500         1.65800        13.99400
O          -7.41200         0.19100        14.67300
C          -7.44800         0.86600        15.94000
H          -8.18700         0.33000        16.53600
H          -7.74200         1.91100        15.81200
H          -6.46700         0.83200        16.42200
C           5.72500        -0.14500        10.86800
H           5.21300         0.80300        10.73200
C           7.11200        -0.20900        10.71900
H           7.66800         0.69100        10.47000
C           7.78100        -1.42300        10.88500
H           8.85900        -1.47400        10.76600
C           7.05400        -2.57300        11.20000
H           7.56400        -3.52400        11.32600
C           5.66900        -2.50600        11.34900
H           5.10800        -3.40600        11.58700
C           4.98800        -1.29200        11.18700
C           3.49900        -1.23300        11.44400
C           3.12000        -1.15700        12.93200
H           2.03600        -1.25600        13.02100
H           3.54300        -2.04000        13.43000
C           3.55700         0.13000        13.66700
H           3.53400         0.98400        12.98100
H           2.81600         0.36100        14.44000
C           4.93200         0.04400        14.33800
H           5.72700        -0.16100        13.61300
H           4.96700        -0.78500        15.05700
C           5.29700         1.31700        15.07500
O           4.65800         2.34700        15.07400
O           6.46200         1.16600        15.74900
C           6.90800         2.32400        16.47200
H           7.84700         2.03200        16.94300
H           6.17300         2.61300        17.22900
H           7.06400         3.16700        15.79300
C          -0.46100         2.31400         8.16700
C           0.71600         2.24700         7.06600
C           1.98600         1.60500         7.52100
C           2.21900         1.22300         8.83600
C           1.14700         1.28500         9.83900
C          -0.13100         1.72000         9.49600
C          -1.27000         1.01500         9.99400
C          -2.28300         0.97300         8.92900
C          -1.74700         1.65900         7.78000
C          -1.98500         1.16100         6.50400
C          -0.90800         1.09500         5.49600
C           0.37300         1.53600         5.79700
C           1.50500         0.73600         5.40200
C           2.49200         0.78200         6.46500
C           3.27300        -0.34700         6.74900
C           3.55300        -0.70400         8.11400
C           3.04300         0.08200         9.14000
C           2.62500        -0.48000        10.45800
C           1.32400         0.19600        10.75000
C           0.20400        -0.48500        11.22300
C          -1.11400        -0.04700        10.88200
C          -2.04800        -1.21100        10.92800
C          -3.16500        -1.26000         9.76500
C          -3.11800        -0.12900         8.78500
C          -3.34100        -0.65000         7.46900
C          -2.80000        -0.01500         6.34400
C          -2.26200        -0.81000         5.25500
C          -1.09200        -0.12700         4.73800
C           0.01100        -0.87400         4.31000
C           1.34000        -0.43300         4.65400
C           2.14800        -1.60600         4.94900
C           3.08900        -1.56200         5.97700
C           3.24600        -2.68900         6.87700
C           3.53800        -2.17700         8.20100
C           3.02000        -2.81600         9.31800
C           2.60800        -2.09000        10.55700
C           1.29500        -2.70100        10.92800
C           0.18700        -1.95300        11.31000
C          -1.15000        -2.40000        11.01700
C          -1.34700        -3.55100        10.26400
C          -2.35900        -3.59500         9.19200
C          -3.14700        -2.48900         8.91400
C          -3.36400        -2.10000         7.54300
C          -2.85700        -2.86200         6.48600
C          -2.29400        -2.20300         5.32000
C          -1.14700        -2.97900         4.88000
C          -0.01400        -2.32700         4.38800
C           1.30900        -2.77900         4.77800
C           1.45000        -3.86500         5.64500
C           2.44100        -3.82300         6.71000
C           1.87600        -4.46400         7.87000
C           2.14800        -3.95000         9.14200
C           1.08900        -3.87400        10.13300
C          -0.20600        -4.30300         9.81300
C          -0.48500        -4.82500         8.48700
C           0.53200        -4.90800         7.53700
C           0.27200        -4.54100         6.15600
C          -1.00300        -4.10800         5.78100
C          -2.06500        -4.03200         6.77200
C          -1.81100        -4.38000         8.10400

