#Put Keywords Here, check Charge and Multiplicity.

 B.pdb

0  1
C          -4.39800         2.50400        13.12500
H          -4.20500         1.98800        14.06200
C          -5.06800         3.72600        13.13200
H          -5.39500         4.15600        14.07600
C          -5.31700         4.39500        11.93300
H          -5.83700         5.34900        11.93700
C          -4.89400         3.83200        10.72800
H          -5.08400         4.34600         9.78900
C          -4.22300         2.60800        10.72300
H          -3.89300         2.18000         9.78100
C          -3.96500         1.93100        11.92100
C          -3.31300         0.56600        11.93700
C          -4.32000        -0.59000        12.00200
H          -3.79100        -1.53300        12.17400
H          -4.96600        -0.42300        12.87000
C          -5.18500        -0.72200        10.74100
H          -5.78800         0.18200        10.60700
H          -4.53300        -0.81000         9.86200
C          -6.11000        -1.94300        10.77100
H          -6.58100        -2.09100         9.79000
H          -5.55100        -2.86600        10.97000
C          -7.23100        -1.83800        11.79000
O          -7.49900        -0.85900        12.45400
O          -7.92700        -2.99400        11.85600
C          -9.03400        -2.99700        12.77300
H          -9.76300        -2.23000        12.49900
H          -9.47500        -3.99100        12.69600
H          -8.68800        -2.80800        13.79300
C          -2.05000         0.35800        11.12300
C          -2.03100         0.42000        12.73900
C          -1.21800         1.52800        13.32700
C          -0.64100         2.53600        12.57000
C          -0.65500         2.47700        11.09600
C          -1.24600         1.41300        10.43300
C          -0.56500         0.81300         9.31200
C          -0.76100        -0.62300         9.37100
C          -1.57000        -0.92800        10.52800
C          -1.27000        -2.05400        11.28200
C          -1.25400        -1.99500        12.75800
C          -1.53600        -0.81300        13.42400
C          -0.70700        -0.41700        14.53800
C          -0.51300         1.01900        14.47900
C           0.70100         1.57600        14.89100
C           1.28700         2.64600        14.12000
C           0.63000         3.10400        12.97200
C           1.39800         3.40200        11.77600
C           0.60700         3.01100        10.62400
C           1.24000         2.46200         9.50300
C           0.63900         1.33500         8.83200
C           1.70100         0.44000         8.40100
C           1.51300        -0.94100         8.45900
C           0.25600        -1.48300         8.94800
C           0.54400        -2.67200         9.71500
C          -0.20000        -2.94000        10.86900
C           0.47100        -3.43400        12.05800
C          -0.17600        -2.84800        13.21800
C           0.59100        -2.48900        14.33100
C           0.31900        -1.24300        15.00700
C           1.58500        -0.66300        15.42600
C           1.77200         0.71700        15.36800
C           3.02700         1.26200        14.88400
C           2.72700         2.45600        14.11100
C           3.46100         2.74200        12.95900
C           2.78300         3.23100        11.76900
C           3.43700         2.64800        10.60800
C           2.68000         2.27300         9.49700
C           2.96600         1.02100         8.81500
C           3.99400         0.19500         9.27200
C           3.79900        -1.24500         9.33100
C           2.58300        -1.80200         8.93100
C           1.98200        -2.87400         9.71000
C           2.62400        -3.34600        10.85500
C           1.85200        -3.63800        12.05200
C           2.64900        -3.25300        13.20600
C           2.03000        -2.69000        14.32300
C           2.64500        -1.56000        15.00100
C           3.85200        -1.03800        14.53300
C           4.04700         0.40200        14.47300
C           4.81200         0.70200        13.27500
C           4.52400         1.85000        12.53400
C           4.50900         1.79200        11.08000
C           4.78200         0.58800        10.42700
C           5.07500        -0.60700        11.20000
C           5.09000        -0.55100        12.59400
C           4.49500        -1.62600        13.37100
C           3.90500        -2.71300        12.72200
C           3.89100        -2.77100        11.26800
C           4.46600        -1.74000        10.52300

