%Mem=8Gb
%nproc=8
# b3lyp/6-31g* punch=mo iop(3/33=1) nosymm

Automagically prepared Gaussian Input: JMF 12-9-11  'DA/packmol_dimers' project

0 1
C          -2.29600         4.34800        11.15300
H          -2.28800         3.93100        10.15000
C          -1.91100         5.67500        11.35300
H          -1.61000         6.28200        10.50300
C          -1.91100         6.21800        12.63800
H          -1.60900         7.25000        12.79500
C          -2.30100         5.42800        13.72100
H          -2.30500         5.84300        14.72600
C          -2.68600         4.10400        13.51900
H          -2.98800         3.49300        14.36600
C          -2.68700         3.54700        12.23300
C          -3.19000         2.13500        12.02700
C          -4.72000         2.04100        11.92900
H          -5.02700         0.99100        11.95300
H          -5.14200         2.51900        12.81900
C          -5.29800         2.70500        10.67100
H          -5.06900         3.77500        10.67500
H          -4.82000         2.27400         9.78200
C          -6.81300         2.51600        10.53400
H          -7.09300         1.45600        10.59000
H          -7.15400         2.85700         9.54700
C          -7.62200         3.27600        11.56900
O          -7.18300         4.07200        12.37300
O          -8.93400         2.96400        11.47300
C          -9.80100         3.64900        12.39300
H          -9.73900         4.73100        12.24700
H          -9.52800         3.41500        13.42500
H         -10.80600         3.28800        12.17100
C           3.86800         2.56700        14.49300
H           3.00300         3.12000        14.14100
C           4.47700         2.92400        15.69700
H           4.08300         3.75800        16.27200
C           5.58500         2.21300        16.16100
H           6.05700         2.49000        17.09900
C           6.08100         1.14400        15.41300
H           6.94300         0.58400        15.76600
C           5.47100         0.78800        14.21100
H           5.86100        -0.04600        13.63400
C           4.35700         1.49400        13.73700
C           3.76800         1.14300        12.38900
C           4.52700         1.77200        11.21200
H           5.58100         1.48700        11.30500
H           4.16500         1.35100        10.26900
C           4.41800         3.30200        11.15200
H           4.85900         3.74300        12.05200
H           3.35900         3.59000        11.13400
C           5.09600         3.90000         9.91400
H           4.72400         3.44000         8.99000
H           4.85800         4.96900         9.82800
C           6.60900         3.78400         9.92900
O           7.28600         3.42800        10.87100
O           7.13000         4.15500         8.73800
C           8.56400         4.11200         8.65100
H           9.01500         4.78600         9.38500
H           8.80600         4.43200         7.63700
H           8.93000         3.09800         8.83200
C          -2.47100         1.02300        12.77000
C          -2.36500         1.19400        11.17000
C          -0.98800         1.43900        10.64300
C           0.11600         1.66300        11.45700
C           0.01800         1.51000        12.91600
C          -1.18000         1.13900        13.51400
C          -1.15200         0.15000        14.55000
C          -2.30400        -0.71800        14.39000
C          -3.05700        -0.26700        13.24400
C          -3.62100        -1.20500        12.39200
C          -3.52400        -1.05000        10.92600
C          -2.86900         0.03800        10.36600
C          -1.96500        -0.17700         9.26100
C          -0.81300         0.68700         9.43700
C           0.45900         0.25400         9.04300
C           1.60400         0.53800         9.86900
C           1.43500         1.25100        11.05200
C           2.26100         1.00800        12.27200
C           1.27600         1.00000        13.39400
C           1.30300         0.05800        14.41500
C           0.06400        -0.37500        15.00600
C           0.16700        -1.78900        15.32000
C          -0.94200        -2.62200        15.17700
C          -2.20300        -2.07600        14.70000
C          -2.81800        -3.05000        13.83300
C          -3.50200        -2.61800        12.69000
C          -3.34000        -3.33800        11.44100
C          -3.34700        -2.37200        10.35800
C          -2.51500        -2.56600         9.25000
C          -1.80600        -1.44200         8.69100
C          -0.48500        -1.89500         8.28100
C           0.62100        -1.06600         8.45900
C           1.87800        -1.61200         8.93400
C           2.49900        -0.63300         9.80500
C           3.20400        -1.05000        10.92500
C           3.24900        -0.27300        12.20100
C           3.04800        -1.29600        13.27200
C           2.19900        -1.11000        14.35200
C           1.48300        -2.24100        14.91000
C           1.63400        -3.52200        14.36700
C           0.47800        -4.38800        14.20500
C          -0.78600        -3.94700        14.60300
C          -1.94500        -4.21000        13.76700
C          -1.79500        -4.90300        12.56400
C          -2.51000        -4.45900        11.37800
C          -1.64000        -4.65600        10.22900
C          -1.64200        -3.72700         9.18700
C          -0.38800        -3.31300         8.58300
C           0.81900        -3.84400         9.04200
C           1.97400        -2.98000         9.21500
C           2.68000        -3.41000        10.39800
C           3.25700        -2.45500        11.24000
C           3.16100        -2.60600        12.68100
C           2.49300        -3.70900        13.22400
C           1.88100        -4.69300        12.34700
C           1.97300        -4.54700        10.96300
C           0.81800        -4.81500        10.12300
C          -0.38800        -5.21200        10.70500
C          -0.48400        -5.36300        12.15000
C           0.63000        -5.11200        12.95400

