#Put Keywords Here, check Charge and Multiplicity.

 B.pdb

0  1
C          -2.29600         4.34800        10.75300
H          -2.28800         3.93100         9.75000
C          -1.91100         5.67500        10.95300
H          -1.61000         6.28200        10.10300
C          -1.91100         6.21800        12.23800
H          -1.60900         7.25000        12.39500
C          -2.30100         5.42800        13.32100
H          -2.30500         5.84300        14.32600
C          -2.68600         4.10400        13.11900
H          -2.98800         3.49300        13.96600
C          -2.68700         3.54700        11.83300
C          -3.19000         2.13500        11.62700
C          -4.72000         2.04100        11.52900
H          -5.02700         0.99100        11.55300
H          -5.14200         2.51900        12.41900
C          -5.29800         2.70500        10.27100
H          -5.06900         3.77500        10.27500
H          -4.82000         2.27400         9.38200
C          -6.81300         2.51600        10.13400
H          -7.09300         1.45600        10.19000
H          -7.15400         2.85700         9.14700
C          -7.62200         3.27600        11.16900
O          -7.18300         4.07200        11.97300
O          -8.93400         2.96400        11.07300
C          -9.80100         3.64900        11.99300
H          -9.73900         4.73100        11.84700
H          -9.52800         3.41500        13.02500
H         -10.80600         3.28800        11.77100
C           3.86800         2.56700        14.09300
H           3.00300         3.12000        13.74100
C           4.47700         2.92400        15.29700
H           4.08300         3.75800        15.87200
C           5.58500         2.21300        15.76100
H           6.05700         2.49000        16.69900
C           6.08100         1.14400        15.01300
H           6.94300         0.58400        15.36600
C           5.47100         0.78800        13.81100
H           5.86100        -0.04600        13.23400
C           4.35700         1.49400        13.33700
C           3.76800         1.14300        11.98900
C           4.52700         1.77200        10.81200
H           5.58100         1.48700        10.90500
H           4.16500         1.35100         9.86900
C           4.41800         3.30200        10.75200
H           4.85900         3.74300        11.65200
H           3.35900         3.59000        10.73400
C           5.09600         3.90000         9.51400
H           4.72400         3.44000         8.59000
H           4.85800         4.96900         9.42800
C           6.60900         3.78400         9.52900
O           7.28600         3.42800        10.47100
O           7.13000         4.15500         8.33800
C           8.56400         4.11200         8.25100
H           9.01500         4.78600         8.98500
H           8.80600         4.43200         7.23700
H           8.93000         3.09800         8.43200
C          -2.47100         1.02300        12.37000
C          -2.36500         1.19400        10.77000
C          -0.98800         1.43900        10.24300
C           0.11600         1.66300        11.05700
C           0.01800         1.51000        12.51600
C          -1.18000         1.13900        13.11400
C          -1.15200         0.15000        14.15000
C          -2.30400        -0.71800        13.99000
C          -3.05700        -0.26700        12.84400
C          -3.62100        -1.20500        11.99200
C          -3.52400        -1.05000        10.52600
C          -2.86900         0.03800         9.96600
C          -1.96500        -0.17700         8.86100
C          -0.81300         0.68700         9.03700
C           0.45900         0.25400         8.64300
C           1.60400         0.53800         9.46900
C           1.43500         1.25100        10.65200
C           2.26100         1.00800        11.87200
C           1.27600         1.00000        12.99400
C           1.30300         0.05800        14.01500
C           0.06400        -0.37500        14.60600
C           0.16700        -1.78900        14.92000
C          -0.94200        -2.62200        14.77700
C          -2.20300        -2.07600        14.30000
C          -2.81800        -3.05000        13.43300
C          -3.50200        -2.61800        12.29000
C          -3.34000        -3.33800        11.04100
C          -3.34700        -2.37200         9.95800
C          -2.51500        -2.56600         8.85000
C          -1.80600        -1.44200         8.29100
C          -0.48500        -1.89500         7.88100
C           0.62100        -1.06600         8.05900
C           1.87800        -1.61200         8.53400
C           2.49900        -0.63300         9.40500
C           3.20400        -1.05000        10.52500
C           3.24900        -0.27300        11.80100
C           3.04800        -1.29600        12.87200
C           2.19900        -1.11000        13.95200
C           1.48300        -2.24100        14.51000
C           1.63400        -3.52200        13.96700
C           0.47800        -4.38800        13.80500
C          -0.78600        -3.94700        14.20300
C          -1.94500        -4.21000        13.36700
C          -1.79500        -4.90300        12.16400
C          -2.51000        -4.45900        10.97800
C          -1.64000        -4.65600         9.82900
C          -1.64200        -3.72700         8.78700
C          -0.38800        -3.31300         8.18300
C           0.81900        -3.84400         8.64200
C           1.97400        -2.98000         8.81500
C           2.68000        -3.41000         9.99800
C           3.25700        -2.45500        10.84000
C           3.16100        -2.60600        12.28100
C           2.49300        -3.70900        12.82400
C           1.88100        -4.69300        11.94700
C           1.97300        -4.54700        10.56300
C           0.81800        -4.81500         9.72300
C          -0.38800        -5.21200        10.30500
C          -0.48400        -5.36300        11.75000
C           0.63000        -5.11200        12.55400

