#Put Keywords Here, check Charge and Multiplicity.

 B.pdb

0  1
C          -4.39800         2.50400        11.02500
H          -4.20500         1.98800        11.96200
C          -5.06800         3.72600        11.03200
H          -5.39500         4.15600        11.97600
C          -5.31700         4.39500         9.83300
H          -5.83700         5.34900         9.83700
C          -4.89400         3.83200         8.62800
H          -5.08400         4.34600         7.68900
C          -4.22300         2.60800         8.62300
H          -3.89300         2.18000         7.68100
C          -3.96500         1.93100         9.82100
C          -3.31300         0.56600         9.83700
C          -4.32000        -0.59000         9.90200
H          -3.79100        -1.53300        10.07400
H          -4.96600        -0.42300        10.77000
C          -5.18500        -0.72200         8.64100
H          -5.78800         0.18200         8.50700
H          -4.53300        -0.81000         7.76200
C          -6.11000        -1.94300         8.67100
H          -6.58100        -2.09100         7.69000
H          -5.55100        -2.86600         8.87000
C          -7.23100        -1.83800         9.69000
O          -7.49900        -0.85900        10.35400
O          -7.92700        -2.99400         9.75600
C          -9.03400        -2.99700        10.67300
H          -9.76300        -2.23000        10.39900
H          -9.47500        -3.99100        10.59600
H          -8.68800        -2.80800        11.69300
C          -2.05000         0.35800         9.02300
C          -2.03100         0.42000        10.63900
C          -1.21800         1.52800        11.22700
C          -0.64100         2.53600        10.47000
C          -0.65500         2.47700         8.99600
C          -1.24600         1.41300         8.33300
C          -0.56500         0.81300         7.21200
C          -0.76100        -0.62300         7.27100
C          -1.57000        -0.92800         8.42800
C          -1.27000        -2.05400         9.18200
C          -1.25400        -1.99500        10.65800
C          -1.53600        -0.81300        11.32400
C          -0.70700        -0.41700        12.43800
C          -0.51300         1.01900        12.37900
C           0.70100         1.57600        12.79100
C           1.28700         2.64600        12.02000
C           0.63000         3.10400        10.87200
C           1.39800         3.40200         9.67600
C           0.60700         3.01100         8.52400
C           1.24000         2.46200         7.40300
C           0.63900         1.33500         6.73200
C           1.70100         0.44000         6.30100
C           1.51300        -0.94100         6.35900
C           0.25600        -1.48300         6.84800
C           0.54400        -2.67200         7.61500
C          -0.20000        -2.94000         8.76900
C           0.47100        -3.43400         9.95800
C          -0.17600        -2.84800        11.11800
C           0.59100        -2.48900        12.23100
C           0.31900        -1.24300        12.90700
C           1.58500        -0.66300        13.32600
C           1.77200         0.71700        13.26800
C           3.02700         1.26200        12.78400
C           2.72700         2.45600        12.01100
C           3.46100         2.74200        10.85900
C           2.78300         3.23100         9.66900
C           3.43700         2.64800         8.50800
C           2.68000         2.27300         7.39700
C           2.96600         1.02100         6.71500
C           3.99400         0.19500         7.17200
C           3.79900        -1.24500         7.23100
C           2.58300        -1.80200         6.83100
C           1.98200        -2.87400         7.61000
C           2.62400        -3.34600         8.75500
C           1.85200        -3.63800         9.95200
C           2.64900        -3.25300        11.10600
C           2.03000        -2.69000        12.22300
C           2.64500        -1.56000        12.90100
C           3.85200        -1.03800        12.43300
C           4.04700         0.40200        12.37300
C           4.81200         0.70200        11.17500
C           4.52400         1.85000        10.43400
C           4.50900         1.79200         8.98000
C           4.78200         0.58800         8.32700
C           5.07500        -0.60700         9.10000
C           5.09000        -0.55100        10.49400
C           4.49500        -1.62600        11.27100
C           3.90500        -2.71300        10.62200
C           3.89100        -2.77100         9.16800
C           4.46600        -1.74000         8.42300

