%Mem=8Gb
%nproc=8
# b3lyp/6-31g* punch=mo iop(3/33=1) nosymm

Automagically prepared Gaussian Input: JMF 12-9-11  'DA/packmol_dimers' project

0 1
C          -2.29600         4.34800         9.35300
H          -2.28800         3.93100         8.35000
C          -1.91100         5.67500         9.55300
H          -1.61000         6.28200         8.70300
C          -1.91100         6.21800        10.83800
H          -1.60900         7.25000        10.99500
C          -2.30100         5.42800        11.92100
H          -2.30500         5.84300        12.92600
C          -2.68600         4.10400        11.71900
H          -2.98800         3.49300        12.56600
C          -2.68700         3.54700        10.43300
C          -3.19000         2.13500        10.22700
C          -4.72000         2.04100        10.12900
H          -5.02700         0.99100        10.15300
H          -5.14200         2.51900        11.01900
C          -5.29800         2.70500         8.87100
H          -5.06900         3.77500         8.87500
H          -4.82000         2.27400         7.98200
C          -6.81300         2.51600         8.73400
H          -7.09300         1.45600         8.79000
H          -7.15400         2.85700         7.74700
C          -7.62200         3.27600         9.76900
O          -7.18300         4.07200        10.57300
O          -8.93400         2.96400         9.67300
C          -9.80100         3.64900        10.59300
H          -9.73900         4.73100        10.44700
H          -9.52800         3.41500        11.62500
H         -10.80600         3.28800        10.37100
C           3.86800         2.56700        12.69300
H           3.00300         3.12000        12.34100
C           4.47700         2.92400        13.89700
H           4.08300         3.75800        14.47200
C           5.58500         2.21300        14.36100
H           6.05700         2.49000        15.29900
C           6.08100         1.14400        13.61300
H           6.94300         0.58400        13.96600
C           5.47100         0.78800        12.41100
H           5.86100        -0.04600        11.83400
C           4.35700         1.49400        11.93700
C           3.76800         1.14300        10.58900
C           4.52700         1.77200         9.41200
H           5.58100         1.48700         9.50500
H           4.16500         1.35100         8.46900
C           4.41800         3.30200         9.35200
H           4.85900         3.74300        10.25200
H           3.35900         3.59000         9.33400
C           5.09600         3.90000         8.11400
H           4.72400         3.44000         7.19000
H           4.85800         4.96900         8.02800
C           6.60900         3.78400         8.12900
O           7.28600         3.42800         9.07100
O           7.13000         4.15500         6.93800
C           8.56400         4.11200         6.85100
H           9.01500         4.78600         7.58500
H           8.80600         4.43200         5.83700
H           8.93000         3.09800         7.03200
C          -2.47100         1.02300        10.97000
C          -2.36500         1.19400         9.37000
C          -0.98800         1.43900         8.84300
C           0.11600         1.66300         9.65700
C           0.01800         1.51000        11.11600
C          -1.18000         1.13900        11.71400
C          -1.15200         0.15000        12.75000
C          -2.30400        -0.71800        12.59000
C          -3.05700        -0.26700        11.44400
C          -3.62100        -1.20500        10.59200
C          -3.52400        -1.05000         9.12600
C          -2.86900         0.03800         8.56600
C          -1.96500        -0.17700         7.46100
C          -0.81300         0.68700         7.63700
C           0.45900         0.25400         7.24300
C           1.60400         0.53800         8.06900
C           1.43500         1.25100         9.25200
C           2.26100         1.00800        10.47200
C           1.27600         1.00000        11.59400
C           1.30300         0.05800        12.61500
C           0.06400        -0.37500        13.20600
C           0.16700        -1.78900        13.52000
C          -0.94200        -2.62200        13.37700
C          -2.20300        -2.07600        12.90000
C          -2.81800        -3.05000        12.03300
C          -3.50200        -2.61800        10.89000
C          -3.34000        -3.33800         9.64100
C          -3.34700        -2.37200         8.55800
C          -2.51500        -2.56600         7.45000
C          -1.80600        -1.44200         6.89100
C          -0.48500        -1.89500         6.48100
C           0.62100        -1.06600         6.65900
C           1.87800        -1.61200         7.13400
C           2.49900        -0.63300         8.00500
C           3.20400        -1.05000         9.12500
C           3.24900        -0.27300        10.40100
C           3.04800        -1.29600        11.47200
C           2.19900        -1.11000        12.55200
C           1.48300        -2.24100        13.11000
C           1.63400        -3.52200        12.56700
C           0.47800        -4.38800        12.40500
C          -0.78600        -3.94700        12.80300
C          -1.94500        -4.21000        11.96700
C          -1.79500        -4.90300        10.76400
C          -2.51000        -4.45900         9.57800
C          -1.64000        -4.65600         8.42900
C          -1.64200        -3.72700         7.38700
C          -0.38800        -3.31300         6.78300
C           0.81900        -3.84400         7.24200
C           1.97400        -2.98000         7.41500
C           2.68000        -3.41000         8.59800
C           3.25700        -2.45500         9.44000
C           3.16100        -2.60600        10.88100
C           2.49300        -3.70900        11.42400
C           1.88100        -4.69300        10.54700
C           1.97300        -4.54700         9.16300
C           0.81800        -4.81500         8.32300
C          -0.38800        -5.21200         8.90500
C          -0.48400        -5.36300        10.35000
C           0.63000        -5.11200        11.15400

