#Put Keywords Here, check Charge and Multiplicity.

 B.pdb

0  1
C          -2.29600         4.34800        11.05300
H          -2.28800         3.93100        10.05000
C          -1.91100         5.67500        11.25300
H          -1.61000         6.28200        10.40300
C          -1.91100         6.21800        12.53800
H          -1.60900         7.25000        12.69500
C          -2.30100         5.42800        13.62100
H          -2.30500         5.84300        14.62600
C          -2.68600         4.10400        13.41900
H          -2.98800         3.49300        14.26600
C          -2.68700         3.54700        12.13300
C          -3.19000         2.13500        11.92700
C          -4.72000         2.04100        11.82900
H          -5.02700         0.99100        11.85300
H          -5.14200         2.51900        12.71900
C          -5.29800         2.70500        10.57100
H          -5.06900         3.77500        10.57500
H          -4.82000         2.27400         9.68200
C          -6.81300         2.51600        10.43400
H          -7.09300         1.45600        10.49000
H          -7.15400         2.85700         9.44700
C          -7.62200         3.27600        11.46900
O          -7.18300         4.07200        12.27300
O          -8.93400         2.96400        11.37300
C          -9.80100         3.64900        12.29300
H          -9.73900         4.73100        12.14700
H          -9.52800         3.41500        13.32500
H         -10.80600         3.28800        12.07100
C           3.86800         2.56700        14.39300
H           3.00300         3.12000        14.04100
C           4.47700         2.92400        15.59700
H           4.08300         3.75800        16.17200
C           5.58500         2.21300        16.06100
H           6.05700         2.49000        16.99900
C           6.08100         1.14400        15.31300
H           6.94300         0.58400        15.66600
C           5.47100         0.78800        14.11100
H           5.86100        -0.04600        13.53400
C           4.35700         1.49400        13.63700
C           3.76800         1.14300        12.28900
C           4.52700         1.77200        11.11200
H           5.58100         1.48700        11.20500
H           4.16500         1.35100        10.16900
C           4.41800         3.30200        11.05200
H           4.85900         3.74300        11.95200
H           3.35900         3.59000        11.03400
C           5.09600         3.90000         9.81400
H           4.72400         3.44000         8.89000
H           4.85800         4.96900         9.72800
C           6.60900         3.78400         9.82900
O           7.28600         3.42800        10.77100
O           7.13000         4.15500         8.63800
C           8.56400         4.11200         8.55100
H           9.01500         4.78600         9.28500
H           8.80600         4.43200         7.53700
H           8.93000         3.09800         8.73200
C          -2.47100         1.02300        12.67000
C          -2.36500         1.19400        11.07000
C          -0.98800         1.43900        10.54300
C           0.11600         1.66300        11.35700
C           0.01800         1.51000        12.81600
C          -1.18000         1.13900        13.41400
C          -1.15200         0.15000        14.45000
C          -2.30400        -0.71800        14.29000
C          -3.05700        -0.26700        13.14400
C          -3.62100        -1.20500        12.29200
C          -3.52400        -1.05000        10.82600
C          -2.86900         0.03800        10.26600
C          -1.96500        -0.17700         9.16100
C          -0.81300         0.68700         9.33700
C           0.45900         0.25400         8.94300
C           1.60400         0.53800         9.76900
C           1.43500         1.25100        10.95200
C           2.26100         1.00800        12.17200
C           1.27600         1.00000        13.29400
C           1.30300         0.05800        14.31500
C           0.06400        -0.37500        14.90600
C           0.16700        -1.78900        15.22000
C          -0.94200        -2.62200        15.07700
C          -2.20300        -2.07600        14.60000
C          -2.81800        -3.05000        13.73300
C          -3.50200        -2.61800        12.59000
C          -3.34000        -3.33800        11.34100
C          -3.34700        -2.37200        10.25800
C          -2.51500        -2.56600         9.15000
C          -1.80600        -1.44200         8.59100
C          -0.48500        -1.89500         8.18100
C           0.62100        -1.06600         8.35900
C           1.87800        -1.61200         8.83400
C           2.49900        -0.63300         9.70500
C           3.20400        -1.05000        10.82500
C           3.24900        -0.27300        12.10100
C           3.04800        -1.29600        13.17200
C           2.19900        -1.11000        14.25200
C           1.48300        -2.24100        14.81000
C           1.63400        -3.52200        14.26700
C           0.47800        -4.38800        14.10500
C          -0.78600        -3.94700        14.50300
C          -1.94500        -4.21000        13.66700
C          -1.79500        -4.90300        12.46400
C          -2.51000        -4.45900        11.27800
C          -1.64000        -4.65600        10.12900
C          -1.64200        -3.72700         9.08700
C          -0.38800        -3.31300         8.48300
C           0.81900        -3.84400         8.94200
C           1.97400        -2.98000         9.11500
C           2.68000        -3.41000        10.29800
C           3.25700        -2.45500        11.14000
C           3.16100        -2.60600        12.58100
C           2.49300        -3.70900        13.12400
C           1.88100        -4.69300        12.24700
C           1.97300        -4.54700        10.86300
C           0.81800        -4.81500        10.02300
C          -0.38800        -5.21200        10.60500
C          -0.48400        -5.36300        12.05000
C           0.63000        -5.11200        12.85400

