#Put Keywords Here, check Charge and Multiplicity.

 pbm_c60_mono_SEP_10.2.pdb

0  1
C          -4.39800         2.50400         1.22500
H          -4.20500         1.98800         2.16200
C          -5.06800         3.72600         1.23200
H          -5.39500         4.15600         2.17600
C          -5.31700         4.39500         0.03300
H          -5.83700         5.34900         0.03700
C          -4.89400         3.83200        -1.17200
H          -5.08400         4.34600        -2.11100
C          -4.22300         2.60800        -1.17700
H          -3.89300         2.18000        -2.11900
C          -3.96500         1.93100         0.02100
C          -3.31300         0.56600         0.03700
C          -4.32000        -0.59000         0.10200
H          -3.79100        -1.53300         0.27400
H          -4.96600        -0.42300         0.97000
C          -5.18500        -0.72200        -1.15900
H          -5.78800         0.18200        -1.29300
H          -4.53300        -0.81000        -2.03800
C          -6.11000        -1.94300        -1.12900
H          -6.58100        -2.09100        -2.11000
H          -5.55100        -2.86600        -0.93000
C          -7.23100        -1.83800        -0.11000
O          -7.49900        -0.85900         0.55400
O          -7.92700        -2.99400        -0.04400
C          -9.03400        -2.99700         0.87300
H          -9.76300        -2.23000         0.59900
H          -9.47500        -3.99100         0.79600
H          -8.68800        -2.80800         1.89300
C          -2.05000         0.35800        -0.77700
C          -2.03100         0.42000         0.83900
C          -1.21800         1.52800         1.42700
C          -0.64100         2.53600         0.67000
C          -0.65500         2.47700        -0.80400
C          -1.24600         1.41300        -1.46700
C          -0.56500         0.81300        -2.58800
C          -0.76100        -0.62300        -2.52900
C          -1.57000        -0.92800        -1.37200
C          -1.27000        -2.05400        -0.61800
C          -1.25400        -1.99500         0.85800
C          -1.53600        -0.81300         1.52400
C          -0.70700        -0.41700         2.63800
C          -0.51300         1.01900         2.57900
C           0.70100         1.57600         2.99100
C           1.28700         2.64600         2.22000
C           0.63000         3.10400         1.07200
C           1.39800         3.40200        -0.12400
C           0.60700         3.01100        -1.27600
C           1.24000         2.46200        -2.39700
C           0.63900         1.33500        -3.06800
C           1.70100         0.44000        -3.49900
C           1.51300        -0.94100        -3.44100
C           0.25600        -1.48300        -2.95200
C           0.54400        -2.67200        -2.18500
C          -0.20000        -2.94000        -1.03100
C           0.47100        -3.43400         0.15800
C          -0.17600        -2.84800         1.31800
C           0.59100        -2.48900         2.43100
C           0.31900        -1.24300         3.10700
C           1.58500        -0.66300         3.52600
C           1.77200         0.71700         3.46800
C           3.02700         1.26200         2.98400
C           2.72700         2.45600         2.21100
C           3.46100         2.74200         1.05900
C           2.78300         3.23100        -0.13100
C           3.43700         2.64800        -1.29200
C           2.68000         2.27300        -2.40300
C           2.96600         1.02100        -3.08500
C           3.99400         0.19500        -2.62800
C           3.79900        -1.24500        -2.56900
C           2.58300        -1.80200        -2.96900
C           1.98200        -2.87400        -2.19000
C           2.62400        -3.34600        -1.04500
C           1.85200        -3.63800         0.15200
C           2.64900        -3.25300         1.30600
C           2.03000        -2.69000         2.42300
C           2.64500        -1.56000         3.10100
C           3.85200        -1.03800         2.63300
C           4.04700         0.40200         2.57300
C           4.81200         0.70200         1.37500
C           4.52400         1.85000         0.63400
C           4.50900         1.79200        -0.82000
C           4.78200         0.58800        -1.47300
C           5.07500        -0.60700        -0.70000
C           5.09000        -0.55100         0.69400
C           4.49500        -1.62600         1.47100
C           3.90500        -2.71300         0.82200
C           3.89100        -2.77100        -0.63200
C           4.46600        -1.74000        -1.37700
C          -4.39800         2.50400        11.42500
H          -4.20500         1.98800        12.36200
C          -5.06800         3.72600        11.43200
H          -5.39500         4.15600        12.37600
C          -5.31700         4.39500        10.23300
H          -5.83700         5.34900        10.23700
C          -4.89400         3.83200         9.02800
H          -5.08400         4.34600         8.08900
C          -4.22300         2.60800         9.02300
H          -3.89300         2.18000         8.08100
C          -3.96500         1.93100        10.22100
C          -3.31300         0.56600        10.23700
C          -4.32000        -0.59000        10.30200
H          -3.79100        -1.53300        10.47400
H          -4.96600        -0.42300        11.17000
C          -5.18500        -0.72200         9.04100
H          -5.78800         0.18200         8.90700
H          -4.53300        -0.81000         8.16200
C          -6.11000        -1.94300         9.07100
H          -6.58100        -2.09100         8.09000
H          -5.55100        -2.86600         9.27000
C          -7.23100        -1.83800        10.09000
O          -7.49900        -0.85900        10.75400
O          -7.92700        -2.99400        10.15600
C          -9.03400        -2.99700        11.07300
H          -9.76300        -2.23000        10.79900
H          -9.47500        -3.99100        10.99600
H          -8.68800        -2.80800        12.09300
C          -2.05000         0.35800         9.42300
C          -2.03100         0.42000        11.03900
C          -1.21800         1.52800        11.62700
C          -0.64100         2.53600        10.87000
C          -0.65500         2.47700         9.39600
C          -1.24600         1.41300         8.73300
C          -0.56500         0.81300         7.61200
C          -0.76100        -0.62300         7.67100
C          -1.57000        -0.92800         8.82800
C          -1.27000        -2.05400         9.58200
C          -1.25400        -1.99500        11.05800
C          -1.53600        -0.81300        11.72400
C          -0.70700        -0.41700        12.83800
C          -0.51300         1.01900        12.77900
C           0.70100         1.57600        13.19100
C           1.28700         2.64600        12.42000
C           0.63000         3.10400        11.27200
C           1.39800         3.40200        10.07600
C           0.60700         3.01100         8.92400
C           1.24000         2.46200         7.80300
C           0.63900         1.33500         7.13200
C           1.70100         0.44000         6.70100
C           1.51300        -0.94100         6.75900
C           0.25600        -1.48300         7.24800
C           0.54400        -2.67200         8.01500
C          -0.20000        -2.94000         9.16900
C           0.47100        -3.43400        10.35800
C          -0.17600        -2.84800        11.51800
C           0.59100        -2.48900        12.63100
C           0.31900        -1.24300        13.30700
C           1.58500        -0.66300        13.72600
C           1.77200         0.71700        13.66800
C           3.02700         1.26200        13.18400
C           2.72700         2.45600        12.41100
C           3.46100         2.74200        11.25900
C           2.78300         3.23100        10.06900
C           3.43700         2.64800         8.90800
C           2.68000         2.27300         7.79700
C           2.96600         1.02100         7.11500
C           3.99400         0.19500         7.57200
C           3.79900        -1.24500         7.63100
C           2.58300        -1.80200         7.23100
C           1.98200        -2.87400         8.01000
C           2.62400        -3.34600         9.15500
C           1.85200        -3.63800        10.35200
C           2.64900        -3.25300        11.50600
C           2.03000        -2.69000        12.62300
C           2.64500        -1.56000        13.30100
C           3.85200        -1.03800        12.83300
C           4.04700         0.40200        12.77300
C           4.81200         0.70200        11.57500
C           4.52400         1.85000        10.83400
C           4.50900         1.79200         9.38000
C           4.78200         0.58800         8.72700
C           5.07500        -0.60700         9.50000
C           5.09000        -0.55100        10.89400
C           4.49500        -1.62600        11.67100
C           3.90500        -2.71300        11.02200
C           3.89100        -2.77100         9.56800
C           4.46600        -1.74000         8.82300

