#Put Keywords Here, check Charge and Multiplicity.

 B.pdb

0  1
C          -4.39800         2.50400        11.92500
H          -4.20500         1.98800        12.86200
C          -5.06800         3.72600        11.93200
H          -5.39500         4.15600        12.87600
C          -5.31700         4.39500        10.73300
H          -5.83700         5.34900        10.73700
C          -4.89400         3.83200         9.52800
H          -5.08400         4.34600         8.58900
C          -4.22300         2.60800         9.52300
H          -3.89300         2.18000         8.58100
C          -3.96500         1.93100        10.72100
C          -3.31300         0.56600        10.73700
C          -4.32000        -0.59000        10.80200
H          -3.79100        -1.53300        10.97400
H          -4.96600        -0.42300        11.67000
C          -5.18500        -0.72200         9.54100
H          -5.78800         0.18200         9.40700
H          -4.53300        -0.81000         8.66200
C          -6.11000        -1.94300         9.57100
H          -6.58100        -2.09100         8.59000
H          -5.55100        -2.86600         9.77000
C          -7.23100        -1.83800        10.59000
O          -7.49900        -0.85900        11.25400
O          -7.92700        -2.99400        10.65600
C          -9.03400        -2.99700        11.57300
H          -9.76300        -2.23000        11.29900
H          -9.47500        -3.99100        11.49600
H          -8.68800        -2.80800        12.59300
C          -2.05000         0.35800         9.92300
C          -2.03100         0.42000        11.53900
C          -1.21800         1.52800        12.12700
C          -0.64100         2.53600        11.37000
C          -0.65500         2.47700         9.89600
C          -1.24600         1.41300         9.23300
C          -0.56500         0.81300         8.11200
C          -0.76100        -0.62300         8.17100
C          -1.57000        -0.92800         9.32800
C          -1.27000        -2.05400        10.08200
C          -1.25400        -1.99500        11.55800
C          -1.53600        -0.81300        12.22400
C          -0.70700        -0.41700        13.33800
C          -0.51300         1.01900        13.27900
C           0.70100         1.57600        13.69100
C           1.28700         2.64600        12.92000
C           0.63000         3.10400        11.77200
C           1.39800         3.40200        10.57600
C           0.60700         3.01100         9.42400
C           1.24000         2.46200         8.30300
C           0.63900         1.33500         7.63200
C           1.70100         0.44000         7.20100
C           1.51300        -0.94100         7.25900
C           0.25600        -1.48300         7.74800
C           0.54400        -2.67200         8.51500
C          -0.20000        -2.94000         9.66900
C           0.47100        -3.43400        10.85800
C          -0.17600        -2.84800        12.01800
C           0.59100        -2.48900        13.13100
C           0.31900        -1.24300        13.80700
C           1.58500        -0.66300        14.22600
C           1.77200         0.71700        14.16800
C           3.02700         1.26200        13.68400
C           2.72700         2.45600        12.91100
C           3.46100         2.74200        11.75900
C           2.78300         3.23100        10.56900
C           3.43700         2.64800         9.40800
C           2.68000         2.27300         8.29700
C           2.96600         1.02100         7.61500
C           3.99400         0.19500         8.07200
C           3.79900        -1.24500         8.13100
C           2.58300        -1.80200         7.73100
C           1.98200        -2.87400         8.51000
C           2.62400        -3.34600         9.65500
C           1.85200        -3.63800        10.85200
C           2.64900        -3.25300        12.00600
C           2.03000        -2.69000        13.12300
C           2.64500        -1.56000        13.80100
C           3.85200        -1.03800        13.33300
C           4.04700         0.40200        13.27300
C           4.81200         0.70200        12.07500
C           4.52400         1.85000        11.33400
C           4.50900         1.79200         9.88000
C           4.78200         0.58800         9.22700
C           5.07500        -0.60700        10.00000
C           5.09000        -0.55100        11.39400
C           4.49500        -1.62600        12.17100
C           3.90500        -2.71300        11.52200
C           3.89100        -2.77100        10.06800
C           4.46600        -1.74000         9.32300

