%Mem=8Gb
%nproc=8
# b3lyp/6-31g* punch=mo iop(3/33=1) nosymm

Automagically prepared Gaussian Input: JMF 12-9-11  'DA/packmol_dimers' project

0 1
C           0.65500         4.80700        11.81800
H          -0.27200         4.43100        12.23900
C           1.45700         5.66700        12.57100
H           1.14600         5.95300        13.57200
C           2.65400         6.15300        12.04300
H           3.28000         6.81900        12.63100
C           3.04500         5.77300        10.75800
H           3.97800         6.14200        10.33900
C           2.24300         4.91400        10.00700
H           2.55500         4.61700         9.00900
C           1.03700         4.42300        10.52700
C           0.14300         3.56600         9.65800
C          -0.71100         4.36200         8.65800
H          -1.24100         3.65800         8.01200
H          -0.02600         4.91400         8.00000
C          -1.74300         5.32800         9.28300
H          -2.11100         4.92800        10.23400
H          -2.62100         5.37400         8.63000
C          -1.22800         6.75600         9.48900
H          -0.35900         6.78400        10.15700
H          -0.88600         7.19100         8.54100
C          -2.28400         7.67500        10.07000
O          -3.39100         7.34300        10.43500
O          -1.82900         8.94800        10.14000
C          -2.75100         9.90100        10.69300
H          -3.66200         9.95200        10.08900
H          -2.22800        10.85800        10.67800
H          -3.02200         9.62700        11.71600
C          -3.69900        -2.76300        15.27900
H          -2.89400        -2.20500        15.74900
C          -4.28700        -3.83300        15.95200
H          -3.93700        -4.10400        16.94500
C          -5.32000        -4.55700        15.35100
H          -5.77700        -5.39300        15.87300
C          -5.75700        -4.20300        14.07500
H          -6.55800        -4.76100        13.59700
C          -5.16600        -3.13100        13.40200
H          -5.51000        -2.86600        12.40700
C          -4.13200        -2.39700        13.99700
C          -3.53700        -1.17500        13.33300
C          -4.10400         0.15800        13.85000
H          -3.51500         0.97800        13.43300
H          -3.94400         0.20200        14.93300
C          -5.59300         0.41600        13.52500
H          -5.83900        -0.03000        12.55400
H          -5.73200         1.49600        13.41200
C          -6.60200        -0.07900        14.56800
H          -6.47400        -1.14200        14.80000
H          -7.62600         0.01600        14.18100
C          -6.54400         0.70000        15.86800
O          -5.83500         1.65800        16.09400
O          -7.41200         0.19100        16.77300
C          -7.44800         0.86600        18.04000
H          -8.18700         0.33000        18.63600
H          -7.74200         1.91100        17.91200
H          -6.46700         0.83200        18.52200
C           5.72500        -0.14500        12.96800
H           5.21300         0.80300        12.83200
C           7.11200        -0.20900        12.81900
H           7.66800         0.69100        12.57000
C           7.78100        -1.42300        12.98500
H           8.85900        -1.47400        12.86600
C           7.05400        -2.57300        13.30000
H           7.56400        -3.52400        13.42600
C           5.66900        -2.50600        13.44900
H           5.10800        -3.40600        13.68700
C           4.98800        -1.29200        13.28700
C           3.49900        -1.23300        13.54400
C           3.12000        -1.15700        15.03200
H           2.03600        -1.25600        15.12100
H           3.54300        -2.04000        15.53000
C           3.55700         0.13000        15.76700
H           3.53400         0.98400        15.08100
H           2.81600         0.36100        16.54000
C           4.93200         0.04400        16.43800
H           5.72700        -0.16100        15.71300
H           4.96700        -0.78500        17.15700
C           5.29700         1.31700        17.17500
O           4.65800         2.34700        17.17400
O           6.46200         1.16600        17.84900
C           6.90800         2.32400        18.57200
H           7.84700         2.03200        19.04300
H           6.17300         2.61300        19.32900
H           7.06400         3.16700        17.89300
C          -0.46100         2.31400        10.26700
C           0.71600         2.24700         9.16600
C           1.98600         1.60500         9.62100
C           2.21900         1.22300        10.93600
C           1.14700         1.28500        11.93900
C          -0.13100         1.72000        11.59600
C          -1.27000         1.01500        12.09400
C          -2.28300         0.97300        11.02900
C          -1.74700         1.65900         9.88000
C          -1.98500         1.16100         8.60400
C          -0.90800         1.09500         7.59600
C           0.37300         1.53600         7.89700
C           1.50500         0.73600         7.50200
C           2.49200         0.78200         8.56500
C           3.27300        -0.34700         8.84900
C           3.55300        -0.70400        10.21400
C           3.04300         0.08200        11.24000
C           2.62500        -0.48000        12.55800
C           1.32400         0.19600        12.85000
C           0.20400        -0.48500        13.32300
C          -1.11400        -0.04700        12.98200
C          -2.04800        -1.21100        13.02800
C          -3.16500        -1.26000        11.86500
C          -3.11800        -0.12900        10.88500
C          -3.34100        -0.65000         9.56900
C          -2.80000        -0.01500         8.44400
C          -2.26200        -0.81000         7.35500
C          -1.09200        -0.12700         6.83800
C           0.01100        -0.87400         6.41000
C           1.34000        -0.43300         6.75400
C           2.14800        -1.60600         7.04900
C           3.08900        -1.56200         8.07700
C           3.24600        -2.68900         8.97700
C           3.53800        -2.17700        10.30100
C           3.02000        -2.81600        11.41800
C           2.60800        -2.09000        12.65700
C           1.29500        -2.70100        13.02800
C           0.18700        -1.95300        13.41000
C          -1.15000        -2.40000        13.11700
C          -1.34700        -3.55100        12.36400
C          -2.35900        -3.59500        11.29200
C          -3.14700        -2.48900        11.01400
C          -3.36400        -2.10000         9.64300
C          -2.85700        -2.86200         8.58600
C          -2.29400        -2.20300         7.42000
C          -1.14700        -2.97900         6.98000
C          -0.01400        -2.32700         6.48800
C           1.30900        -2.77900         6.87800
C           1.45000        -3.86500         7.74500
C           2.44100        -3.82300         8.81000
C           1.87600        -4.46400         9.97000
C           2.14800        -3.95000        11.24200
C           1.08900        -3.87400        12.23300
C          -0.20600        -4.30300        11.91300
C          -0.48500        -4.82500        10.58700
C           0.53200        -4.90800         9.63700
C           0.27200        -4.54100         8.25600
C          -1.00300        -4.10800         7.88100
C          -2.06500        -4.03200         8.87200
C          -1.81100        -4.38000        10.20400

