%Mem=8Gb
%nproc=8
# b3lyp/6-31g* punch=mo iop(3/33=1) nosymm

Automagically prepared Gaussian Input: JMF 12-9-11  'DA/packmol_dimers' project

0 1
C          -2.29600         4.34800        -0.74700
H          -2.28800         3.93100        -1.75000
C          -1.91100         5.67500        -0.54700
H          -1.61000         6.28200        -1.39700
C          -1.91100         6.21800         0.73800
H          -1.60900         7.25000         0.89500
C          -2.30100         5.42800         1.82100
H          -2.30500         5.84300         2.82600
C          -2.68600         4.10400         1.61900
H          -2.98800         3.49300         2.46600
C          -2.68700         3.54700         0.33300
C          -3.19000         2.13500         0.12700
C          -4.72000         2.04100         0.02900
H          -5.02700         0.99100         0.05300
H          -5.14200         2.51900         0.91900
C          -5.29800         2.70500        -1.22900
H          -5.06900         3.77500        -1.22500
H          -4.82000         2.27400        -2.11800
C          -6.81300         2.51600        -1.36600
H          -7.09300         1.45600        -1.31000
H          -7.15400         2.85700        -2.35300
C          -7.62200         3.27600        -0.33100
O          -7.18300         4.07200         0.47300
O          -8.93400         2.96400        -0.42700
C          -9.80100         3.64900         0.49300
H          -9.73900         4.73100         0.34700
H          -9.52800         3.41500         1.52500
H         -10.80600         3.28800         0.27100
C           3.86800         2.56700         2.59300
H           3.00300         3.12000         2.24100
C           4.47700         2.92400         3.79700
H           4.08300         3.75800         4.37200
C           5.58500         2.21300         4.26100
H           6.05700         2.49000         5.19900
C           6.08100         1.14400         3.51300
H           6.94300         0.58400         3.86600
C           5.47100         0.78800         2.31100
H           5.86100        -0.04600         1.73400
C           4.35700         1.49400         1.83700
C           3.76800         1.14300         0.48900
C           4.52700         1.77200        -0.68800
H           5.58100         1.48700        -0.59500
H           4.16500         1.35100        -1.63100
C           4.41800         3.30200        -0.74800
H           4.85900         3.74300         0.15200
H           3.35900         3.59000        -0.76600
C           5.09600         3.90000        -1.98600
H           4.72400         3.44000        -2.91000
H           4.85800         4.96900        -2.07200
C           6.60900         3.78400        -1.97100
O           7.28600         3.42800        -1.02900
O           7.13000         4.15500        -3.16200
C           8.56400         4.11200        -3.24900
H           9.01500         4.78600        -2.51500
H           8.80600         4.43200        -4.26300
H           8.93000         3.09800        -3.06800
C          -2.47100         1.02300         0.87000
C          -2.36500         1.19400        -0.73000
C          -0.98800         1.43900        -1.25700
C           0.11600         1.66300        -0.44300
C           0.01800         1.51000         1.01600
C          -1.18000         1.13900         1.61400
C          -1.15200         0.15000         2.65000
C          -2.30400        -0.71800         2.49000
C          -3.05700        -0.26700         1.34400
C          -3.62100        -1.20500         0.49200
C          -3.52400        -1.05000        -0.97400
C          -2.86900         0.03800        -1.53400
C          -1.96500        -0.17700        -2.63900
C          -0.81300         0.68700        -2.46300
C           0.45900         0.25400        -2.85700
C           1.60400         0.53800        -2.03100
C           1.43500         1.25100        -0.84800
C           2.26100         1.00800         0.37200
C           1.27600         1.00000         1.49400
C           1.30300         0.05800         2.51500
C           0.06400        -0.37500         3.10600
C           0.16700        -1.78900         3.42000
C          -0.94200        -2.62200         3.27700
C          -2.20300        -2.07600         2.80000
C          -2.81800        -3.05000         1.93300
C          -3.50200        -2.61800         0.79000
C          -3.34000        -3.33800        -0.45900
C          -3.34700        -2.37200        -1.54200
C          -2.51500        -2.56600        -2.65000
C          -1.80600        -1.44200        -3.20900
C          -0.48500        -1.89500        -3.61900
C           0.62100        -1.06600        -3.44100
C           1.87800        -1.61200        -2.96600
C           2.49900        -0.63300        -2.09500
C           3.20400        -1.05000        -0.97500
C           3.24900        -0.27300         0.30100
C           3.04800        -1.29600         1.37200
C           2.19900        -1.11000         2.45200
C           1.48300        -2.24100         3.01000
C           1.63400        -3.52200         2.46700
C           0.47800        -4.38800         2.30500
C          -0.78600        -3.94700         2.70300
C          -1.94500        -4.21000         1.86700
C          -1.79500        -4.90300         0.66400
C          -2.51000        -4.45900        -0.52200
C          -1.64000        -4.65600        -1.67100
C          -1.64200        -3.72700        -2.71300
C          -0.38800        -3.31300        -3.31700
C           0.81900        -3.84400        -2.85800
C           1.97400        -2.98000        -2.68500
C           2.68000        -3.41000        -1.50200
C           3.25700        -2.45500        -0.66000
C           3.16100        -2.60600         0.78100
C           2.49300        -3.70900         1.32400
C           1.88100        -4.69300         0.44700
C           1.97300        -4.54700        -0.93700
C           0.81800        -4.81500        -1.77700
C          -0.38800        -5.21200        -1.19500
C          -0.48400        -5.36300         0.25000
C           0.63000        -5.11200         1.05400
C          -2.29600         4.34800        10.65300
H          -2.28800         3.93100         9.65000
C          -1.91100         5.67500        10.85300
H          -1.61000         6.28200        10.00300
C          -1.91100         6.21800        12.13800
H          -1.60900         7.25000        12.29500
C          -2.30100         5.42800        13.22100
H          -2.30500         5.84300        14.22600
C          -2.68600         4.10400        13.01900
H          -2.98800         3.49300        13.86600
C          -2.68700         3.54700        11.73300
C          -3.19000         2.13500        11.52700
C          -4.72000         2.04100        11.42900
H          -5.02700         0.99100        11.45300
H          -5.14200         2.51900        12.31900
C          -5.29800         2.70500        10.17100
H          -5.06900         3.77500        10.17500
H          -4.82000         2.27400         9.28200
C          -6.81300         2.51600        10.03400
H          -7.09300         1.45600        10.09000
H          -7.15400         2.85700         9.04700
C          -7.62200         3.27600        11.06900
O          -7.18300         4.07200        11.87300
O          -8.93400         2.96400        10.97300
C          -9.80100         3.64900        11.89300
H          -9.73900         4.73100        11.74700
H          -9.52800         3.41500        12.92500
H         -10.80600         3.28800        11.67100
C           3.86800         2.56700        13.99300
H           3.00300         3.12000        13.64100
C           4.47700         2.92400        15.19700
H           4.08300         3.75800        15.77200
C           5.58500         2.21300        15.66100
H           6.05700         2.49000        16.59900
C           6.08100         1.14400        14.91300
H           6.94300         0.58400        15.26600
C           5.47100         0.78800        13.71100
H           5.86100        -0.04600        13.13400
C           4.35700         1.49400        13.23700
C           3.76800         1.14300        11.88900
C           4.52700         1.77200        10.71200
H           5.58100         1.48700        10.80500
H           4.16500         1.35100         9.76900
C           4.41800         3.30200        10.65200
H           4.85900         3.74300        11.55200
H           3.35900         3.59000        10.63400
C           5.09600         3.90000         9.41400
H           4.72400         3.44000         8.49000
H           4.85800         4.96900         9.32800
C           6.60900         3.78400         9.42900
O           7.28600         3.42800        10.37100
O           7.13000         4.15500         8.23800
C           8.56400         4.11200         8.15100
H           9.01500         4.78600         8.88500
H           8.80600         4.43200         7.13700
H           8.93000         3.09800         8.33200
C          -2.47100         1.02300        12.27000
C          -2.36500         1.19400        10.67000
C          -0.98800         1.43900        10.14300
C           0.11600         1.66300        10.95700
C           0.01800         1.51000        12.41600
C          -1.18000         1.13900        13.01400
C          -1.15200         0.15000        14.05000
C          -2.30400        -0.71800        13.89000
C          -3.05700        -0.26700        12.74400
C          -3.62100        -1.20500        11.89200
C          -3.52400        -1.05000        10.42600
C          -2.86900         0.03800         9.86600
C          -1.96500        -0.17700         8.76100
C          -0.81300         0.68700         8.93700
C           0.45900         0.25400         8.54300
C           1.60400         0.53800         9.36900
C           1.43500         1.25100        10.55200
C           2.26100         1.00800        11.77200
C           1.27600         1.00000        12.89400
C           1.30300         0.05800        13.91500
C           0.06400        -0.37500        14.50600
C           0.16700        -1.78900        14.82000
C          -0.94200        -2.62200        14.67700
C          -2.20300        -2.07600        14.20000
C          -2.81800        -3.05000        13.33300
C          -3.50200        -2.61800        12.19000
C          -3.34000        -3.33800        10.94100
C          -3.34700        -2.37200         9.85800
C          -2.51500        -2.56600         8.75000
C          -1.80600        -1.44200         8.19100
C          -0.48500        -1.89500         7.78100
C           0.62100        -1.06600         7.95900
C           1.87800        -1.61200         8.43400
C           2.49900        -0.63300         9.30500
C           3.20400        -1.05000        10.42500
C           3.24900        -0.27300        11.70100
C           3.04800        -1.29600        12.77200
C           2.19900        -1.11000        13.85200
C           1.48300        -2.24100        14.41000
C           1.63400        -3.52200        13.86700
C           0.47800        -4.38800        13.70500
C          -0.78600        -3.94700        14.10300
C          -1.94500        -4.21000        13.26700
C          -1.79500        -4.90300        12.06400
C          -2.51000        -4.45900        10.87800
C          -1.64000        -4.65600         9.72900
C          -1.64200        -3.72700         8.68700
C          -0.38800        -3.31300         8.08300
C           0.81900        -3.84400         8.54200
C           1.97400        -2.98000         8.71500
C           2.68000        -3.41000         9.89800
C           3.25700        -2.45500        10.74000
C           3.16100        -2.60600        12.18100
C           2.49300        -3.70900        12.72400
C           1.88100        -4.69300        11.84700
C           1.97300        -4.54700        10.46300
C           0.81800        -4.81500         9.62300
C          -0.38800        -5.21200        10.20500
C          -0.48400        -5.36300        11.65000
C           0.63000        -5.11200        12.45400

