#Put Keywords Here, check Charge and Multiplicity.

 B.pdb

0  1
C          -4.39800         2.50400        12.62500
H          -4.20500         1.98800        13.56200
C          -5.06800         3.72600        12.63200
H          -5.39500         4.15600        13.57600
C          -5.31700         4.39500        11.43300
H          -5.83700         5.34900        11.43700
C          -4.89400         3.83200        10.22800
H          -5.08400         4.34600         9.28900
C          -4.22300         2.60800        10.22300
H          -3.89300         2.18000         9.28100
C          -3.96500         1.93100        11.42100
C          -3.31300         0.56600        11.43700
C          -4.32000        -0.59000        11.50200
H          -3.79100        -1.53300        11.67400
H          -4.96600        -0.42300        12.37000
C          -5.18500        -0.72200        10.24100
H          -5.78800         0.18200        10.10700
H          -4.53300        -0.81000         9.36200
C          -6.11000        -1.94300        10.27100
H          -6.58100        -2.09100         9.29000
H          -5.55100        -2.86600        10.47000
C          -7.23100        -1.83800        11.29000
O          -7.49900        -0.85900        11.95400
O          -7.92700        -2.99400        11.35600
C          -9.03400        -2.99700        12.27300
H          -9.76300        -2.23000        11.99900
H          -9.47500        -3.99100        12.19600
H          -8.68800        -2.80800        13.29300
C          -2.05000         0.35800        10.62300
C          -2.03100         0.42000        12.23900
C          -1.21800         1.52800        12.82700
C          -0.64100         2.53600        12.07000
C          -0.65500         2.47700        10.59600
C          -1.24600         1.41300         9.93300
C          -0.56500         0.81300         8.81200
C          -0.76100        -0.62300         8.87100
C          -1.57000        -0.92800        10.02800
C          -1.27000        -2.05400        10.78200
C          -1.25400        -1.99500        12.25800
C          -1.53600        -0.81300        12.92400
C          -0.70700        -0.41700        14.03800
C          -0.51300         1.01900        13.97900
C           0.70100         1.57600        14.39100
C           1.28700         2.64600        13.62000
C           0.63000         3.10400        12.47200
C           1.39800         3.40200        11.27600
C           0.60700         3.01100        10.12400
C           1.24000         2.46200         9.00300
C           0.63900         1.33500         8.33200
C           1.70100         0.44000         7.90100
C           1.51300        -0.94100         7.95900
C           0.25600        -1.48300         8.44800
C           0.54400        -2.67200         9.21500
C          -0.20000        -2.94000        10.36900
C           0.47100        -3.43400        11.55800
C          -0.17600        -2.84800        12.71800
C           0.59100        -2.48900        13.83100
C           0.31900        -1.24300        14.50700
C           1.58500        -0.66300        14.92600
C           1.77200         0.71700        14.86800
C           3.02700         1.26200        14.38400
C           2.72700         2.45600        13.61100
C           3.46100         2.74200        12.45900
C           2.78300         3.23100        11.26900
C           3.43700         2.64800        10.10800
C           2.68000         2.27300         8.99700
C           2.96600         1.02100         8.31500
C           3.99400         0.19500         8.77200
C           3.79900        -1.24500         8.83100
C           2.58300        -1.80200         8.43100
C           1.98200        -2.87400         9.21000
C           2.62400        -3.34600        10.35500
C           1.85200        -3.63800        11.55200
C           2.64900        -3.25300        12.70600
C           2.03000        -2.69000        13.82300
C           2.64500        -1.56000        14.50100
C           3.85200        -1.03800        14.03300
C           4.04700         0.40200        13.97300
C           4.81200         0.70200        12.77500
C           4.52400         1.85000        12.03400
C           4.50900         1.79200        10.58000
C           4.78200         0.58800         9.92700
C           5.07500        -0.60700        10.70000
C           5.09000        -0.55100        12.09400
C           4.49500        -1.62600        12.87100
C           3.90500        -2.71300        12.22200
C           3.89100        -2.77100        10.76800
C           4.46600        -1.74000        10.02300

