#Put Keywords Here, check Charge and Multiplicity.

 B.pdb

0  1
C          -2.29600         4.34800         8.55300
H          -2.28800         3.93100         7.55000
C          -1.91100         5.67500         8.75300
H          -1.61000         6.28200         7.90300
C          -1.91100         6.21800        10.03800
H          -1.60900         7.25000        10.19500
C          -2.30100         5.42800        11.12100
H          -2.30500         5.84300        12.12600
C          -2.68600         4.10400        10.91900
H          -2.98800         3.49300        11.76600
C          -2.68700         3.54700         9.63300
C          -3.19000         2.13500         9.42700
C          -4.72000         2.04100         9.32900
H          -5.02700         0.99100         9.35300
H          -5.14200         2.51900        10.21900
C          -5.29800         2.70500         8.07100
H          -5.06900         3.77500         8.07500
H          -4.82000         2.27400         7.18200
C          -6.81300         2.51600         7.93400
H          -7.09300         1.45600         7.99000
H          -7.15400         2.85700         6.94700
C          -7.62200         3.27600         8.96900
O          -7.18300         4.07200         9.77300
O          -8.93400         2.96400         8.87300
C          -9.80100         3.64900         9.79300
H          -9.73900         4.73100         9.64700
H          -9.52800         3.41500        10.82500
H         -10.80600         3.28800         9.57100
C           3.86800         2.56700        11.89300
H           3.00300         3.12000        11.54100
C           4.47700         2.92400        13.09700
H           4.08300         3.75800        13.67200
C           5.58500         2.21300        13.56100
H           6.05700         2.49000        14.49900
C           6.08100         1.14400        12.81300
H           6.94300         0.58400        13.16600
C           5.47100         0.78800        11.61100
H           5.86100        -0.04600        11.03400
C           4.35700         1.49400        11.13700
C           3.76800         1.14300         9.78900
C           4.52700         1.77200         8.61200
H           5.58100         1.48700         8.70500
H           4.16500         1.35100         7.66900
C           4.41800         3.30200         8.55200
H           4.85900         3.74300         9.45200
H           3.35900         3.59000         8.53400
C           5.09600         3.90000         7.31400
H           4.72400         3.44000         6.39000
H           4.85800         4.96900         7.22800
C           6.60900         3.78400         7.32900
O           7.28600         3.42800         8.27100
O           7.13000         4.15500         6.13800
C           8.56400         4.11200         6.05100
H           9.01500         4.78600         6.78500
H           8.80600         4.43200         5.03700
H           8.93000         3.09800         6.23200
C          -2.47100         1.02300        10.17000
C          -2.36500         1.19400         8.57000
C          -0.98800         1.43900         8.04300
C           0.11600         1.66300         8.85700
C           0.01800         1.51000        10.31600
C          -1.18000         1.13900        10.91400
C          -1.15200         0.15000        11.95000
C          -2.30400        -0.71800        11.79000
C          -3.05700        -0.26700        10.64400
C          -3.62100        -1.20500         9.79200
C          -3.52400        -1.05000         8.32600
C          -2.86900         0.03800         7.76600
C          -1.96500        -0.17700         6.66100
C          -0.81300         0.68700         6.83700
C           0.45900         0.25400         6.44300
C           1.60400         0.53800         7.26900
C           1.43500         1.25100         8.45200
C           2.26100         1.00800         9.67200
C           1.27600         1.00000        10.79400
C           1.30300         0.05800        11.81500
C           0.06400        -0.37500        12.40600
C           0.16700        -1.78900        12.72000
C          -0.94200        -2.62200        12.57700
C          -2.20300        -2.07600        12.10000
C          -2.81800        -3.05000        11.23300
C          -3.50200        -2.61800        10.09000
C          -3.34000        -3.33800         8.84100
C          -3.34700        -2.37200         7.75800
C          -2.51500        -2.56600         6.65000
C          -1.80600        -1.44200         6.09100
C          -0.48500        -1.89500         5.68100
C           0.62100        -1.06600         5.85900
C           1.87800        -1.61200         6.33400
C           2.49900        -0.63300         7.20500
C           3.20400        -1.05000         8.32500
C           3.24900        -0.27300         9.60100
C           3.04800        -1.29600        10.67200
C           2.19900        -1.11000        11.75200
C           1.48300        -2.24100        12.31000
C           1.63400        -3.52200        11.76700
C           0.47800        -4.38800        11.60500
C          -0.78600        -3.94700        12.00300
C          -1.94500        -4.21000        11.16700
C          -1.79500        -4.90300         9.96400
C          -2.51000        -4.45900         8.77800
C          -1.64000        -4.65600         7.62900
C          -1.64200        -3.72700         6.58700
C          -0.38800        -3.31300         5.98300
C           0.81900        -3.84400         6.44200
C           1.97400        -2.98000         6.61500
C           2.68000        -3.41000         7.79800
C           3.25700        -2.45500         8.64000
C           3.16100        -2.60600        10.08100
C           2.49300        -3.70900        10.62400
C           1.88100        -4.69300         9.74700
C           1.97300        -4.54700         8.36300
C           0.81800        -4.81500         7.52300
C          -0.38800        -5.21200         8.10500
C          -0.48400        -5.36300         9.55000
C           0.63000        -5.11200        10.35400

