#Put Keywords Here, check Charge and Multiplicity.

 B.pdb

0  1
C          -2.29600         4.34800         8.45300
H          -2.28800         3.93100         7.45000
C          -1.91100         5.67500         8.65300
H          -1.61000         6.28200         7.80300
C          -1.91100         6.21800         9.93800
H          -1.60900         7.25000        10.09500
C          -2.30100         5.42800        11.02100
H          -2.30500         5.84300        12.02600
C          -2.68600         4.10400        10.81900
H          -2.98800         3.49300        11.66600
C          -2.68700         3.54700         9.53300
C          -3.19000         2.13500         9.32700
C          -4.72000         2.04100         9.22900
H          -5.02700         0.99100         9.25300
H          -5.14200         2.51900        10.11900
C          -5.29800         2.70500         7.97100
H          -5.06900         3.77500         7.97500
H          -4.82000         2.27400         7.08200
C          -6.81300         2.51600         7.83400
H          -7.09300         1.45600         7.89000
H          -7.15400         2.85700         6.84700
C          -7.62200         3.27600         8.86900
O          -7.18300         4.07200         9.67300
O          -8.93400         2.96400         8.77300
C          -9.80100         3.64900         9.69300
H          -9.73900         4.73100         9.54700
H          -9.52800         3.41500        10.72500
H         -10.80600         3.28800         9.47100
C           3.86800         2.56700        11.79300
H           3.00300         3.12000        11.44100
C           4.47700         2.92400        12.99700
H           4.08300         3.75800        13.57200
C           5.58500         2.21300        13.46100
H           6.05700         2.49000        14.39900
C           6.08100         1.14400        12.71300
H           6.94300         0.58400        13.06600
C           5.47100         0.78800        11.51100
H           5.86100        -0.04600        10.93400
C           4.35700         1.49400        11.03700
C           3.76800         1.14300         9.68900
C           4.52700         1.77200         8.51200
H           5.58100         1.48700         8.60500
H           4.16500         1.35100         7.56900
C           4.41800         3.30200         8.45200
H           4.85900         3.74300         9.35200
H           3.35900         3.59000         8.43400
C           5.09600         3.90000         7.21400
H           4.72400         3.44000         6.29000
H           4.85800         4.96900         7.12800
C           6.60900         3.78400         7.22900
O           7.28600         3.42800         8.17100
O           7.13000         4.15500         6.03800
C           8.56400         4.11200         5.95100
H           9.01500         4.78600         6.68500
H           8.80600         4.43200         4.93700
H           8.93000         3.09800         6.13200
C          -2.47100         1.02300        10.07000
C          -2.36500         1.19400         8.47000
C          -0.98800         1.43900         7.94300
C           0.11600         1.66300         8.75700
C           0.01800         1.51000        10.21600
C          -1.18000         1.13900        10.81400
C          -1.15200         0.15000        11.85000
C          -2.30400        -0.71800        11.69000
C          -3.05700        -0.26700        10.54400
C          -3.62100        -1.20500         9.69200
C          -3.52400        -1.05000         8.22600
C          -2.86900         0.03800         7.66600
C          -1.96500        -0.17700         6.56100
C          -0.81300         0.68700         6.73700
C           0.45900         0.25400         6.34300
C           1.60400         0.53800         7.16900
C           1.43500         1.25100         8.35200
C           2.26100         1.00800         9.57200
C           1.27600         1.00000        10.69400
C           1.30300         0.05800        11.71500
C           0.06400        -0.37500        12.30600
C           0.16700        -1.78900        12.62000
C          -0.94200        -2.62200        12.47700
C          -2.20300        -2.07600        12.00000
C          -2.81800        -3.05000        11.13300
C          -3.50200        -2.61800         9.99000
C          -3.34000        -3.33800         8.74100
C          -3.34700        -2.37200         7.65800
C          -2.51500        -2.56600         6.55000
C          -1.80600        -1.44200         5.99100
C          -0.48500        -1.89500         5.58100
C           0.62100        -1.06600         5.75900
C           1.87800        -1.61200         6.23400
C           2.49900        -0.63300         7.10500
C           3.20400        -1.05000         8.22500
C           3.24900        -0.27300         9.50100
C           3.04800        -1.29600        10.57200
C           2.19900        -1.11000        11.65200
C           1.48300        -2.24100        12.21000
C           1.63400        -3.52200        11.66700
C           0.47800        -4.38800        11.50500
C          -0.78600        -3.94700        11.90300
C          -1.94500        -4.21000        11.06700
C          -1.79500        -4.90300         9.86400
C          -2.51000        -4.45900         8.67800
C          -1.64000        -4.65600         7.52900
C          -1.64200        -3.72700         6.48700
C          -0.38800        -3.31300         5.88300
C           0.81900        -3.84400         6.34200
C           1.97400        -2.98000         6.51500
C           2.68000        -3.41000         7.69800
C           3.25700        -2.45500         8.54000
C           3.16100        -2.60600         9.98100
C           2.49300        -3.70900        10.52400
C           1.88100        -4.69300         9.64700
C           1.97300        -4.54700         8.26300
C           0.81800        -4.81500         7.42300
C          -0.38800        -5.21200         8.00500
C          -0.48400        -5.36300         9.45000
C           0.63000        -5.11200        10.25400

