%Mem=8Gb
%nproc=8
# b3lyp/6-31g* punch=mo iop(3/33=1) nosymm

Automagically prepared Gaussian Input: JMF 12-9-11  'DA/packmol_dimers' project

0 1
C           0.65500         4.80700        15.21800
H          -0.27200         4.43100        15.63900
C           1.45700         5.66700        15.97100
H           1.14600         5.95300        16.97200
C           2.65400         6.15300        15.44300
H           3.28000         6.81900        16.03100
C           3.04500         5.77300        14.15800
H           3.97800         6.14200        13.73900
C           2.24300         4.91400        13.40700
H           2.55500         4.61700        12.40900
C           1.03700         4.42300        13.92700
C           0.14300         3.56600        13.05800
C          -0.71100         4.36200        12.05800
H          -1.24100         3.65800        11.41200
H          -0.02600         4.91400        11.40000
C          -1.74300         5.32800        12.68300
H          -2.11100         4.92800        13.63400
H          -2.62100         5.37400        12.03000
C          -1.22800         6.75600        12.88900
H          -0.35900         6.78400        13.55700
H          -0.88600         7.19100        11.94100
C          -2.28400         7.67500        13.47000
O          -3.39100         7.34300        13.83500
O          -1.82900         8.94800        13.54000
C          -2.75100         9.90100        14.09300
H          -3.66200         9.95200        13.48900
H          -2.22800        10.85800        14.07800
H          -3.02200         9.62700        15.11600
C          -3.69900        -2.76300        18.67900
H          -2.89400        -2.20500        19.14900
C          -4.28700        -3.83300        19.35200
H          -3.93700        -4.10400        20.34500
C          -5.32000        -4.55700        18.75100
H          -5.77700        -5.39300        19.27300
C          -5.75700        -4.20300        17.47500
H          -6.55800        -4.76100        16.99700
C          -5.16600        -3.13100        16.80200
H          -5.51000        -2.86600        15.80700
C          -4.13200        -2.39700        17.39700
C          -3.53700        -1.17500        16.73300
C          -4.10400         0.15800        17.25000
H          -3.51500         0.97800        16.83300
H          -3.94400         0.20200        18.33300
C          -5.59300         0.41600        16.92500
H          -5.83900        -0.03000        15.95400
H          -5.73200         1.49600        16.81200
C          -6.60200        -0.07900        17.96800
H          -6.47400        -1.14200        18.20000
H          -7.62600         0.01600        17.58100
C          -6.54400         0.70000        19.26800
O          -5.83500         1.65800        19.49400
O          -7.41200         0.19100        20.17300
C          -7.44800         0.86600        21.44000
H          -8.18700         0.33000        22.03600
H          -7.74200         1.91100        21.31200
H          -6.46700         0.83200        21.92200
C           5.72500        -0.14500        16.36800
H           5.21300         0.80300        16.23200
C           7.11200        -0.20900        16.21900
H           7.66800         0.69100        15.97000
C           7.78100        -1.42300        16.38500
H           8.85900        -1.47400        16.26600
C           7.05400        -2.57300        16.70000
H           7.56400        -3.52400        16.82600
C           5.66900        -2.50600        16.84900
H           5.10800        -3.40600        17.08700
C           4.98800        -1.29200        16.68700
C           3.49900        -1.23300        16.94400
C           3.12000        -1.15700        18.43200
H           2.03600        -1.25600        18.52100
H           3.54300        -2.04000        18.93000
C           3.55700         0.13000        19.16700
H           3.53400         0.98400        18.48100
H           2.81600         0.36100        19.94000
C           4.93200         0.04400        19.83800
H           5.72700        -0.16100        19.11300
H           4.96700        -0.78500        20.55700
C           5.29700         1.31700        20.57500
O           4.65800         2.34700        20.57400
O           6.46200         1.16600        21.24900
C           6.90800         2.32400        21.97200
H           7.84700         2.03200        22.44300
H           6.17300         2.61300        22.72900
H           7.06400         3.16700        21.29300
C          -0.46100         2.31400        13.66700
C           0.71600         2.24700        12.56600
C           1.98600         1.60500        13.02100
C           2.21900         1.22300        14.33600
C           1.14700         1.28500        15.33900
C          -0.13100         1.72000        14.99600
C          -1.27000         1.01500        15.49400
C          -2.28300         0.97300        14.42900
C          -1.74700         1.65900        13.28000
C          -1.98500         1.16100        12.00400
C          -0.90800         1.09500        10.99600
C           0.37300         1.53600        11.29700
C           1.50500         0.73600        10.90200
C           2.49200         0.78200        11.96500
C           3.27300        -0.34700        12.24900
C           3.55300        -0.70400        13.61400
C           3.04300         0.08200        14.64000
C           2.62500        -0.48000        15.95800
C           1.32400         0.19600        16.25000
C           0.20400        -0.48500        16.72300
C          -1.11400        -0.04700        16.38200
C          -2.04800        -1.21100        16.42800
C          -3.16500        -1.26000        15.26500
C          -3.11800        -0.12900        14.28500
C          -3.34100        -0.65000        12.96900
C          -2.80000        -0.01500        11.84400
C          -2.26200        -0.81000        10.75500
C          -1.09200        -0.12700        10.23800
C           0.01100        -0.87400         9.81000
C           1.34000        -0.43300        10.15400
C           2.14800        -1.60600        10.44900
C           3.08900        -1.56200        11.47700
C           3.24600        -2.68900        12.37700
C           3.53800        -2.17700        13.70100
C           3.02000        -2.81600        14.81800
C           2.60800        -2.09000        16.05700
C           1.29500        -2.70100        16.42800
C           0.18700        -1.95300        16.81000
C          -1.15000        -2.40000        16.51700
C          -1.34700        -3.55100        15.76400
C          -2.35900        -3.59500        14.69200
C          -3.14700        -2.48900        14.41400
C          -3.36400        -2.10000        13.04300
C          -2.85700        -2.86200        11.98600
C          -2.29400        -2.20300        10.82000
C          -1.14700        -2.97900        10.38000
C          -0.01400        -2.32700         9.88800
C           1.30900        -2.77900        10.27800
C           1.45000        -3.86500        11.14500
C           2.44100        -3.82300        12.21000
C           1.87600        -4.46400        13.37000
C           2.14800        -3.95000        14.64200
C           1.08900        -3.87400        15.63300
C          -0.20600        -4.30300        15.31300
C          -0.48500        -4.82500        13.98700
C           0.53200        -4.90800        13.03700
C           0.27200        -4.54100        11.65600
C          -1.00300        -4.10800        11.28100
C          -2.06500        -4.03200        12.27200
C          -1.81100        -4.38000        13.60400

