%Mem=8Gb
%nproc=8
# b3lyp/6-31g* punch=mo iop(3/33=1) nosymm

Automagically prepared Gaussian Input: JMF 12-9-11  'DA/packmol_dimers' project

0 1
C          -4.39800         2.50400        15.22500
H          -4.20500         1.98800        16.16200
C          -5.06800         3.72600        15.23200
H          -5.39500         4.15600        16.17600
C          -5.31700         4.39500        14.03300
H          -5.83700         5.34900        14.03700
C          -4.89400         3.83200        12.82800
H          -5.08400         4.34600        11.88900
C          -4.22300         2.60800        12.82300
H          -3.89300         2.18000        11.88100
C          -3.96500         1.93100        14.02100
C          -3.31300         0.56600        14.03700
C          -4.32000        -0.59000        14.10200
H          -3.79100        -1.53300        14.27400
H          -4.96600        -0.42300        14.97000
C          -5.18500        -0.72200        12.84100
H          -5.78800         0.18200        12.70700
H          -4.53300        -0.81000        11.96200
C          -6.11000        -1.94300        12.87100
H          -6.58100        -2.09100        11.89000
H          -5.55100        -2.86600        13.07000
C          -7.23100        -1.83800        13.89000
O          -7.49900        -0.85900        14.55400
O          -7.92700        -2.99400        13.95600
C          -9.03400        -2.99700        14.87300
H          -9.76300        -2.23000        14.59900
H          -9.47500        -3.99100        14.79600
H          -8.68800        -2.80800        15.89300
C          -2.05000         0.35800        13.22300
C          -2.03100         0.42000        14.83900
C          -1.21800         1.52800        15.42700
C          -0.64100         2.53600        14.67000
C          -0.65500         2.47700        13.19600
C          -1.24600         1.41300        12.53300
C          -0.56500         0.81300        11.41200
C          -0.76100        -0.62300        11.47100
C          -1.57000        -0.92800        12.62800
C          -1.27000        -2.05400        13.38200
C          -1.25400        -1.99500        14.85800
C          -1.53600        -0.81300        15.52400
C          -0.70700        -0.41700        16.63800
C          -0.51300         1.01900        16.57900
C           0.70100         1.57600        16.99100
C           1.28700         2.64600        16.22000
C           0.63000         3.10400        15.07200
C           1.39800         3.40200        13.87600
C           0.60700         3.01100        12.72400
C           1.24000         2.46200        11.60300
C           0.63900         1.33500        10.93200
C           1.70100         0.44000        10.50100
C           1.51300        -0.94100        10.55900
C           0.25600        -1.48300        11.04800
C           0.54400        -2.67200        11.81500
C          -0.20000        -2.94000        12.96900
C           0.47100        -3.43400        14.15800
C          -0.17600        -2.84800        15.31800
C           0.59100        -2.48900        16.43100
C           0.31900        -1.24300        17.10700
C           1.58500        -0.66300        17.52600
C           1.77200         0.71700        17.46800
C           3.02700         1.26200        16.98400
C           2.72700         2.45600        16.21100
C           3.46100         2.74200        15.05900
C           2.78300         3.23100        13.86900
C           3.43700         2.64800        12.70800
C           2.68000         2.27300        11.59700
C           2.96600         1.02100        10.91500
C           3.99400         0.19500        11.37200
C           3.79900        -1.24500        11.43100
C           2.58300        -1.80200        11.03100
C           1.98200        -2.87400        11.81000
C           2.62400        -3.34600        12.95500
C           1.85200        -3.63800        14.15200
C           2.64900        -3.25300        15.30600
C           2.03000        -2.69000        16.42300
C           2.64500        -1.56000        17.10100
C           3.85200        -1.03800        16.63300
C           4.04700         0.40200        16.57300
C           4.81200         0.70200        15.37500
C           4.52400         1.85000        14.63400
C           4.50900         1.79200        13.18000
C           4.78200         0.58800        12.52700
C           5.07500        -0.60700        13.30000
C           5.09000        -0.55100        14.69400
C           4.49500        -1.62600        15.47100
C           3.90500        -2.71300        14.82200
C           3.89100        -2.77100        13.36800
C           4.46600        -1.74000        12.62300

