#Put Keywords Here, check Charge and Multiplicity.

 B.pdb

0  1
C          -2.29600         4.34800        17.25300
H          -2.28800         3.93100        16.25000
C          -1.91100         5.67500        17.45300
H          -1.61000         6.28200        16.60300
C          -1.91100         6.21800        18.73800
H          -1.60900         7.25000        18.89500
C          -2.30100         5.42800        19.82100
H          -2.30500         5.84300        20.82600
C          -2.68600         4.10400        19.61900
H          -2.98800         3.49300        20.46600
C          -2.68700         3.54700        18.33300
C          -3.19000         2.13500        18.12700
C          -4.72000         2.04100        18.02900
H          -5.02700         0.99100        18.05300
H          -5.14200         2.51900        18.91900
C          -5.29800         2.70500        16.77100
H          -5.06900         3.77500        16.77500
H          -4.82000         2.27400        15.88200
C          -6.81300         2.51600        16.63400
H          -7.09300         1.45600        16.69000
H          -7.15400         2.85700        15.64700
C          -7.62200         3.27600        17.66900
O          -7.18300         4.07200        18.47300
O          -8.93400         2.96400        17.57300
C          -9.80100         3.64900        18.49300
H          -9.73900         4.73100        18.34700
H          -9.52800         3.41500        19.52500
H         -10.80600         3.28800        18.27100
C           3.86800         2.56700        20.59300
H           3.00300         3.12000        20.24100
C           4.47700         2.92400        21.79700
H           4.08300         3.75800        22.37200
C           5.58500         2.21300        22.26100
H           6.05700         2.49000        23.19900
C           6.08100         1.14400        21.51300
H           6.94300         0.58400        21.86600
C           5.47100         0.78800        20.31100
H           5.86100        -0.04600        19.73400
C           4.35700         1.49400        19.83700
C           3.76800         1.14300        18.48900
C           4.52700         1.77200        17.31200
H           5.58100         1.48700        17.40500
H           4.16500         1.35100        16.36900
C           4.41800         3.30200        17.25200
H           4.85900         3.74300        18.15200
H           3.35900         3.59000        17.23400
C           5.09600         3.90000        16.01400
H           4.72400         3.44000        15.09000
H           4.85800         4.96900        15.92800
C           6.60900         3.78400        16.02900
O           7.28600         3.42800        16.97100
O           7.13000         4.15500        14.83800
C           8.56400         4.11200        14.75100
H           9.01500         4.78600        15.48500
H           8.80600         4.43200        13.73700
H           8.93000         3.09800        14.93200
C          -2.47100         1.02300        18.87000
C          -2.36500         1.19400        17.27000
C          -0.98800         1.43900        16.74300
C           0.11600         1.66300        17.55700
C           0.01800         1.51000        19.01600
C          -1.18000         1.13900        19.61400
C          -1.15200         0.15000        20.65000
C          -2.30400        -0.71800        20.49000
C          -3.05700        -0.26700        19.34400
C          -3.62100        -1.20500        18.49200
C          -3.52400        -1.05000        17.02600
C          -2.86900         0.03800        16.46600
C          -1.96500        -0.17700        15.36100
C          -0.81300         0.68700        15.53700
C           0.45900         0.25400        15.14300
C           1.60400         0.53800        15.96900
C           1.43500         1.25100        17.15200
C           2.26100         1.00800        18.37200
C           1.27600         1.00000        19.49400
C           1.30300         0.05800        20.51500
C           0.06400        -0.37500        21.10600
C           0.16700        -1.78900        21.42000
C          -0.94200        -2.62200        21.27700
C          -2.20300        -2.07600        20.80000
C          -2.81800        -3.05000        19.93300
C          -3.50200        -2.61800        18.79000
C          -3.34000        -3.33800        17.54100
C          -3.34700        -2.37200        16.45800
C          -2.51500        -2.56600        15.35000
C          -1.80600        -1.44200        14.79100
C          -0.48500        -1.89500        14.38100
C           0.62100        -1.06600        14.55900
C           1.87800        -1.61200        15.03400
C           2.49900        -0.63300        15.90500
C           3.20400        -1.05000        17.02500
C           3.24900        -0.27300        18.30100
C           3.04800        -1.29600        19.37200
C           2.19900        -1.11000        20.45200
C           1.48300        -2.24100        21.01000
C           1.63400        -3.52200        20.46700
C           0.47800        -4.38800        20.30500
C          -0.78600        -3.94700        20.70300
C          -1.94500        -4.21000        19.86700
C          -1.79500        -4.90300        18.66400
C          -2.51000        -4.45900        17.47800
C          -1.64000        -4.65600        16.32900
C          -1.64200        -3.72700        15.28700
C          -0.38800        -3.31300        14.68300
C           0.81900        -3.84400        15.14200
C           1.97400        -2.98000        15.31500
C           2.68000        -3.41000        16.49800
C           3.25700        -2.45500        17.34000
C           3.16100        -2.60600        18.78100
C           2.49300        -3.70900        19.32400
C           1.88100        -4.69300        18.44700
C           1.97300        -4.54700        17.06300
C           0.81800        -4.81500        16.22300
C          -0.38800        -5.21200        16.80500
C          -0.48400        -5.36300        18.25000
C           0.63000        -5.11200        19.05400

