%Mem=8Gb
%nproc=8
# b3lyp/6-31g* punch=mo iop(3/33=1) nosymm

Automagically prepared Gaussian Input: JMF 12-9-11  'DA/packmol_dimers' project

0 1
C          -4.39800         2.50400        31.22500
H          -4.20500         1.98800        32.16200
C          -5.06800         3.72600        31.23200
H          -5.39500         4.15600        32.17600
C          -5.31700         4.39500        30.03300
H          -5.83700         5.34900        30.03700
C          -4.89400         3.83200        28.82800
H          -5.08400         4.34600        27.88900
C          -4.22300         2.60800        28.82300
H          -3.89300         2.18000        27.88100
C          -3.96500         1.93100        30.02100
C          -3.31300         0.56600        30.03700
C          -4.32000        -0.59000        30.10200
H          -3.79100        -1.53300        30.27400
H          -4.96600        -0.42300        30.97000
C          -5.18500        -0.72200        28.84100
H          -5.78800         0.18200        28.70700
H          -4.53300        -0.81000        27.96200
C          -6.11000        -1.94300        28.87100
H          -6.58100        -2.09100        27.89000
H          -5.55100        -2.86600        29.07000
C          -7.23100        -1.83800        29.89000
O          -7.49900        -0.85900        30.55400
O          -7.92700        -2.99400        29.95600
C          -9.03400        -2.99700        30.87300
H          -9.76300        -2.23000        30.59900
H          -9.47500        -3.99100        30.79600
H          -8.68800        -2.80800        31.89300
C          -2.05000         0.35800        29.22300
C          -2.03100         0.42000        30.83900
C          -1.21800         1.52800        31.42700
C          -0.64100         2.53600        30.67000
C          -0.65500         2.47700        29.19600
C          -1.24600         1.41300        28.53300
C          -0.56500         0.81300        27.41200
C          -0.76100        -0.62300        27.47100
C          -1.57000        -0.92800        28.62800
C          -1.27000        -2.05400        29.38200
C          -1.25400        -1.99500        30.85800
C          -1.53600        -0.81300        31.52400
C          -0.70700        -0.41700        32.63800
C          -0.51300         1.01900        32.57900
C           0.70100         1.57600        32.99100
C           1.28700         2.64600        32.22000
C           0.63000         3.10400        31.07200
C           1.39800         3.40200        29.87600
C           0.60700         3.01100        28.72400
C           1.24000         2.46200        27.60300
C           0.63900         1.33500        26.93200
C           1.70100         0.44000        26.50100
C           1.51300        -0.94100        26.55900
C           0.25600        -1.48300        27.04800
C           0.54400        -2.67200        27.81500
C          -0.20000        -2.94000        28.96900
C           0.47100        -3.43400        30.15800
C          -0.17600        -2.84800        31.31800
C           0.59100        -2.48900        32.43100
C           0.31900        -1.24300        33.10700
C           1.58500        -0.66300        33.52600
C           1.77200         0.71700        33.46800
C           3.02700         1.26200        32.98400
C           2.72700         2.45600        32.21100
C           3.46100         2.74200        31.05900
C           2.78300         3.23100        29.86900
C           3.43700         2.64800        28.70800
C           2.68000         2.27300        27.59700
C           2.96600         1.02100        26.91500
C           3.99400         0.19500        27.37200
C           3.79900        -1.24500        27.43100
C           2.58300        -1.80200        27.03100
C           1.98200        -2.87400        27.81000
C           2.62400        -3.34600        28.95500
C           1.85200        -3.63800        30.15200
C           2.64900        -3.25300        31.30600
C           2.03000        -2.69000        32.42300
C           2.64500        -1.56000        33.10100
C           3.85200        -1.03800        32.63300
C           4.04700         0.40200        32.57300
C           4.81200         0.70200        31.37500
C           4.52400         1.85000        30.63400
C           4.50900         1.79200        29.18000
C           4.78200         0.58800        28.52700
C           5.07500        -0.60700        29.30000
C           5.09000        -0.55100        30.69400
C           4.49500        -1.62600        31.47100
C           3.90500        -2.71300        30.82200
C           3.89100        -2.77100        29.36800
C           4.46600        -1.74000        28.62300

