%Mem=8Gb
%nproc=8
# b3lyp/6-31g* punch=mo iop(3/33=1) nosymm

Automagically prepared Gaussian Input: JMF 12-9-11  'DA/packmol_dimers' project

0 1
C           0.65500         4.80700         9.21800
H          -0.27200         4.43100         9.63900
C           1.45700         5.66700         9.97100
H           1.14600         5.95300        10.97200
C           2.65400         6.15300         9.44300
H           3.28000         6.81900        10.03100
C           3.04500         5.77300         8.15800
H           3.97800         6.14200         7.73900
C           2.24300         4.91400         7.40700
H           2.55500         4.61700         6.40900
C           1.03700         4.42300         7.92700
C           0.14300         3.56600         7.05800
C          -0.71100         4.36200         6.05800
H          -1.24100         3.65800         5.41200
H          -0.02600         4.91400         5.40000
C          -1.74300         5.32800         6.68300
H          -2.11100         4.92800         7.63400
H          -2.62100         5.37400         6.03000
C          -1.22800         6.75600         6.88900
H          -0.35900         6.78400         7.55700
H          -0.88600         7.19100         5.94100
C          -2.28400         7.67500         7.47000
O          -3.39100         7.34300         7.83500
O          -1.82900         8.94800         7.54000
C          -2.75100         9.90100         8.09300
H          -3.66200         9.95200         7.48900
H          -2.22800        10.85800         8.07800
H          -3.02200         9.62700         9.11600
C          -3.69900        -2.76300        12.67900
H          -2.89400        -2.20500        13.14900
C          -4.28700        -3.83300        13.35200
H          -3.93700        -4.10400        14.34500
C          -5.32000        -4.55700        12.75100
H          -5.77700        -5.39300        13.27300
C          -5.75700        -4.20300        11.47500
H          -6.55800        -4.76100        10.99700
C          -5.16600        -3.13100        10.80200
H          -5.51000        -2.86600         9.80700
C          -4.13200        -2.39700        11.39700
C          -3.53700        -1.17500        10.73300
C          -4.10400         0.15800        11.25000
H          -3.51500         0.97800        10.83300
H          -3.94400         0.20200        12.33300
C          -5.59300         0.41600        10.92500
H          -5.83900        -0.03000         9.95400
H          -5.73200         1.49600        10.81200
C          -6.60200        -0.07900        11.96800
H          -6.47400        -1.14200        12.20000
H          -7.62600         0.01600        11.58100
C          -6.54400         0.70000        13.26800
O          -5.83500         1.65800        13.49400
O          -7.41200         0.19100        14.17300
C          -7.44800         0.86600        15.44000
H          -8.18700         0.33000        16.03600
H          -7.74200         1.91100        15.31200
H          -6.46700         0.83200        15.92200
C           5.72500        -0.14500        10.36800
H           5.21300         0.80300        10.23200
C           7.11200        -0.20900        10.21900
H           7.66800         0.69100         9.97000
C           7.78100        -1.42300        10.38500
H           8.85900        -1.47400        10.26600
C           7.05400        -2.57300        10.70000
H           7.56400        -3.52400        10.82600
C           5.66900        -2.50600        10.84900
H           5.10800        -3.40600        11.08700
C           4.98800        -1.29200        10.68700
C           3.49900        -1.23300        10.94400
C           3.12000        -1.15700        12.43200
H           2.03600        -1.25600        12.52100
H           3.54300        -2.04000        12.93000
C           3.55700         0.13000        13.16700
H           3.53400         0.98400        12.48100
H           2.81600         0.36100        13.94000
C           4.93200         0.04400        13.83800
H           5.72700        -0.16100        13.11300
H           4.96700        -0.78500        14.55700
C           5.29700         1.31700        14.57500
O           4.65800         2.34700        14.57400
O           6.46200         1.16600        15.24900
C           6.90800         2.32400        15.97200
H           7.84700         2.03200        16.44300
H           6.17300         2.61300        16.72900
H           7.06400         3.16700        15.29300
C          -0.46100         2.31400         7.66700
C           0.71600         2.24700         6.56600
C           1.98600         1.60500         7.02100
C           2.21900         1.22300         8.33600
C           1.14700         1.28500         9.33900
C          -0.13100         1.72000         8.99600
C          -1.27000         1.01500         9.49400
C          -2.28300         0.97300         8.42900
C          -1.74700         1.65900         7.28000
C          -1.98500         1.16100         6.00400
C          -0.90800         1.09500         4.99600
C           0.37300         1.53600         5.29700
C           1.50500         0.73600         4.90200
C           2.49200         0.78200         5.96500
C           3.27300        -0.34700         6.24900
C           3.55300        -0.70400         7.61400
C           3.04300         0.08200         8.64000
C           2.62500        -0.48000         9.95800
C           1.32400         0.19600        10.25000
C           0.20400        -0.48500        10.72300
C          -1.11400        -0.04700        10.38200
C          -2.04800        -1.21100        10.42800
C          -3.16500        -1.26000         9.26500
C          -3.11800        -0.12900         8.28500
C          -3.34100        -0.65000         6.96900
C          -2.80000        -0.01500         5.84400
C          -2.26200        -0.81000         4.75500
C          -1.09200        -0.12700         4.23800
C           0.01100        -0.87400         3.81000
C           1.34000        -0.43300         4.15400
C           2.14800        -1.60600         4.44900
C           3.08900        -1.56200         5.47700
C           3.24600        -2.68900         6.37700
C           3.53800        -2.17700         7.70100
C           3.02000        -2.81600         8.81800
C           2.60800        -2.09000        10.05700
C           1.29500        -2.70100        10.42800
C           0.18700        -1.95300        10.81000
C          -1.15000        -2.40000        10.51700
C          -1.34700        -3.55100         9.76400
C          -2.35900        -3.59500         8.69200
C          -3.14700        -2.48900         8.41400
C          -3.36400        -2.10000         7.04300
C          -2.85700        -2.86200         5.98600
C          -2.29400        -2.20300         4.82000
C          -1.14700        -2.97900         4.38000
C          -0.01400        -2.32700         3.88800
C           1.30900        -2.77900         4.27800
C           1.45000        -3.86500         5.14500
C           2.44100        -3.82300         6.21000
C           1.87600        -4.46400         7.37000
C           2.14800        -3.95000         8.64200
C           1.08900        -3.87400         9.63300
C          -0.20600        -4.30300         9.31300
C          -0.48500        -4.82500         7.98700
C           0.53200        -4.90800         7.03700
C           0.27200        -4.54100         5.65600
C          -1.00300        -4.10800         5.28100
C          -2.06500        -4.03200         6.27200
C          -1.81100        -4.38000         7.60400

