#Put Keywords Here, check Charge and Multiplicity.

 B.pdb

0  1
C          -4.39800         2.50400        17.22500
H          -4.20500         1.98800        18.16200
C          -5.06800         3.72600        17.23200
H          -5.39500         4.15600        18.17600
C          -5.31700         4.39500        16.03300
H          -5.83700         5.34900        16.03700
C          -4.89400         3.83200        14.82800
H          -5.08400         4.34600        13.88900
C          -4.22300         2.60800        14.82300
H          -3.89300         2.18000        13.88100
C          -3.96500         1.93100        16.02100
C          -3.31300         0.56600        16.03700
C          -4.32000        -0.59000        16.10200
H          -3.79100        -1.53300        16.27400
H          -4.96600        -0.42300        16.97000
C          -5.18500        -0.72200        14.84100
H          -5.78800         0.18200        14.70700
H          -4.53300        -0.81000        13.96200
C          -6.11000        -1.94300        14.87100
H          -6.58100        -2.09100        13.89000
H          -5.55100        -2.86600        15.07000
C          -7.23100        -1.83800        15.89000
O          -7.49900        -0.85900        16.55400
O          -7.92700        -2.99400        15.95600
C          -9.03400        -2.99700        16.87300
H          -9.76300        -2.23000        16.59900
H          -9.47500        -3.99100        16.79600
H          -8.68800        -2.80800        17.89300
C          -2.05000         0.35800        15.22300
C          -2.03100         0.42000        16.83900
C          -1.21800         1.52800        17.42700
C          -0.64100         2.53600        16.67000
C          -0.65500         2.47700        15.19600
C          -1.24600         1.41300        14.53300
C          -0.56500         0.81300        13.41200
C          -0.76100        -0.62300        13.47100
C          -1.57000        -0.92800        14.62800
C          -1.27000        -2.05400        15.38200
C          -1.25400        -1.99500        16.85800
C          -1.53600        -0.81300        17.52400
C          -0.70700        -0.41700        18.63800
C          -0.51300         1.01900        18.57900
C           0.70100         1.57600        18.99100
C           1.28700         2.64600        18.22000
C           0.63000         3.10400        17.07200
C           1.39800         3.40200        15.87600
C           0.60700         3.01100        14.72400
C           1.24000         2.46200        13.60300
C           0.63900         1.33500        12.93200
C           1.70100         0.44000        12.50100
C           1.51300        -0.94100        12.55900
C           0.25600        -1.48300        13.04800
C           0.54400        -2.67200        13.81500
C          -0.20000        -2.94000        14.96900
C           0.47100        -3.43400        16.15800
C          -0.17600        -2.84800        17.31800
C           0.59100        -2.48900        18.43100
C           0.31900        -1.24300        19.10700
C           1.58500        -0.66300        19.52600
C           1.77200         0.71700        19.46800
C           3.02700         1.26200        18.98400
C           2.72700         2.45600        18.21100
C           3.46100         2.74200        17.05900
C           2.78300         3.23100        15.86900
C           3.43700         2.64800        14.70800
C           2.68000         2.27300        13.59700
C           2.96600         1.02100        12.91500
C           3.99400         0.19500        13.37200
C           3.79900        -1.24500        13.43100
C           2.58300        -1.80200        13.03100
C           1.98200        -2.87400        13.81000
C           2.62400        -3.34600        14.95500
C           1.85200        -3.63800        16.15200
C           2.64900        -3.25300        17.30600
C           2.03000        -2.69000        18.42300
C           2.64500        -1.56000        19.10100
C           3.85200        -1.03800        18.63300
C           4.04700         0.40200        18.57300
C           4.81200         0.70200        17.37500
C           4.52400         1.85000        16.63400
C           4.50900         1.79200        15.18000
C           4.78200         0.58800        14.52700
C           5.07500        -0.60700        15.30000
C           5.09000        -0.55100        16.69400
C           4.49500        -1.62600        17.47100
C           3.90500        -2.71300        16.82200
C           3.89100        -2.77100        15.36800
C           4.46600        -1.74000        14.62300

