%Mem=8Gb
%nproc=8
# b3lyp/6-31g* punch=mo iop(3/33=1) nosymm

Automagically prepared Gaussian Input: JMF 12-9-11  'DA/packmol_dimers' project

0 1
C          -2.29600         4.34800        24.25300
H          -2.28800         3.93100        23.25000
C          -1.91100         5.67500        24.45300
H          -1.61000         6.28200        23.60300
C          -1.91100         6.21800        25.73800
H          -1.60900         7.25000        25.89500
C          -2.30100         5.42800        26.82100
H          -2.30500         5.84300        27.82600
C          -2.68600         4.10400        26.61900
H          -2.98800         3.49300        27.46600
C          -2.68700         3.54700        25.33300
C          -3.19000         2.13500        25.12700
C          -4.72000         2.04100        25.02900
H          -5.02700         0.99100        25.05300
H          -5.14200         2.51900        25.91900
C          -5.29800         2.70500        23.77100
H          -5.06900         3.77500        23.77500
H          -4.82000         2.27400        22.88200
C          -6.81300         2.51600        23.63400
H          -7.09300         1.45600        23.69000
H          -7.15400         2.85700        22.64700
C          -7.62200         3.27600        24.66900
O          -7.18300         4.07200        25.47300
O          -8.93400         2.96400        24.57300
C          -9.80100         3.64900        25.49300
H          -9.73900         4.73100        25.34700
H          -9.52800         3.41500        26.52500
H         -10.80600         3.28800        25.27100
C           3.86800         2.56700        27.59300
H           3.00300         3.12000        27.24100
C           4.47700         2.92400        28.79700
H           4.08300         3.75800        29.37200
C           5.58500         2.21300        29.26100
H           6.05700         2.49000        30.19900
C           6.08100         1.14400        28.51300
H           6.94300         0.58400        28.86600
C           5.47100         0.78800        27.31100
H           5.86100        -0.04600        26.73400
C           4.35700         1.49400        26.83700
C           3.76800         1.14300        25.48900
C           4.52700         1.77200        24.31200
H           5.58100         1.48700        24.40500
H           4.16500         1.35100        23.36900
C           4.41800         3.30200        24.25200
H           4.85900         3.74300        25.15200
H           3.35900         3.59000        24.23400
C           5.09600         3.90000        23.01400
H           4.72400         3.44000        22.09000
H           4.85800         4.96900        22.92800
C           6.60900         3.78400        23.02900
O           7.28600         3.42800        23.97100
O           7.13000         4.15500        21.83800
C           8.56400         4.11200        21.75100
H           9.01500         4.78600        22.48500
H           8.80600         4.43200        20.73700
H           8.93000         3.09800        21.93200
C          -2.47100         1.02300        25.87000
C          -2.36500         1.19400        24.27000
C          -0.98800         1.43900        23.74300
C           0.11600         1.66300        24.55700
C           0.01800         1.51000        26.01600
C          -1.18000         1.13900        26.61400
C          -1.15200         0.15000        27.65000
C          -2.30400        -0.71800        27.49000
C          -3.05700        -0.26700        26.34400
C          -3.62100        -1.20500        25.49200
C          -3.52400        -1.05000        24.02600
C          -2.86900         0.03800        23.46600
C          -1.96500        -0.17700        22.36100
C          -0.81300         0.68700        22.53700
C           0.45900         0.25400        22.14300
C           1.60400         0.53800        22.96900
C           1.43500         1.25100        24.15200
C           2.26100         1.00800        25.37200
C           1.27600         1.00000        26.49400
C           1.30300         0.05800        27.51500
C           0.06400        -0.37500        28.10600
C           0.16700        -1.78900        28.42000
C          -0.94200        -2.62200        28.27700
C          -2.20300        -2.07600        27.80000
C          -2.81800        -3.05000        26.93300
C          -3.50200        -2.61800        25.79000
C          -3.34000        -3.33800        24.54100
C          -3.34700        -2.37200        23.45800
C          -2.51500        -2.56600        22.35000
C          -1.80600        -1.44200        21.79100
C          -0.48500        -1.89500        21.38100
C           0.62100        -1.06600        21.55900
C           1.87800        -1.61200        22.03400
C           2.49900        -0.63300        22.90500
C           3.20400        -1.05000        24.02500
C           3.24900        -0.27300        25.30100
C           3.04800        -1.29600        26.37200
C           2.19900        -1.11000        27.45200
C           1.48300        -2.24100        28.01000
C           1.63400        -3.52200        27.46700
C           0.47800        -4.38800        27.30500
C          -0.78600        -3.94700        27.70300
C          -1.94500        -4.21000        26.86700
C          -1.79500        -4.90300        25.66400
C          -2.51000        -4.45900        24.47800
C          -1.64000        -4.65600        23.32900
C          -1.64200        -3.72700        22.28700
C          -0.38800        -3.31300        21.68300
C           0.81900        -3.84400        22.14200
C           1.97400        -2.98000        22.31500
C           2.68000        -3.41000        23.49800
C           3.25700        -2.45500        24.34000
C           3.16100        -2.60600        25.78100
C           2.49300        -3.70900        26.32400
C           1.88100        -4.69300        25.44700
C           1.97300        -4.54700        24.06300
C           0.81800        -4.81500        23.22300
C          -0.38800        -5.21200        23.80500
C          -0.48400        -5.36300        25.25000
C           0.63000        -5.11200        26.05400

