#Put Keywords Here, check Charge and Multiplicity.

 B.pdb

0  1
C           0.65500         4.80700        17.21800
H          -0.27200         4.43100        17.63900
C           1.45700         5.66700        17.97100
H           1.14600         5.95300        18.97200
C           2.65400         6.15300        17.44300
H           3.28000         6.81900        18.03100
C           3.04500         5.77300        16.15800
H           3.97800         6.14200        15.73900
C           2.24300         4.91400        15.40700
H           2.55500         4.61700        14.40900
C           1.03700         4.42300        15.92700
C           0.14300         3.56600        15.05800
C          -0.71100         4.36200        14.05800
H          -1.24100         3.65800        13.41200
H          -0.02600         4.91400        13.40000
C          -1.74300         5.32800        14.68300
H          -2.11100         4.92800        15.63400
H          -2.62100         5.37400        14.03000
C          -1.22800         6.75600        14.88900
H          -0.35900         6.78400        15.55700
H          -0.88600         7.19100        13.94100
C          -2.28400         7.67500        15.47000
O          -3.39100         7.34300        15.83500
O          -1.82900         8.94800        15.54000
C          -2.75100         9.90100        16.09300
H          -3.66200         9.95200        15.48900
H          -2.22800        10.85800        16.07800
H          -3.02200         9.62700        17.11600
C          -3.69900        -2.76300        20.67900
H          -2.89400        -2.20500        21.14900
C          -4.28700        -3.83300        21.35200
H          -3.93700        -4.10400        22.34500
C          -5.32000        -4.55700        20.75100
H          -5.77700        -5.39300        21.27300
C          -5.75700        -4.20300        19.47500
H          -6.55800        -4.76100        18.99700
C          -5.16600        -3.13100        18.80200
H          -5.51000        -2.86600        17.80700
C          -4.13200        -2.39700        19.39700
C          -3.53700        -1.17500        18.73300
C          -4.10400         0.15800        19.25000
H          -3.51500         0.97800        18.83300
H          -3.94400         0.20200        20.33300
C          -5.59300         0.41600        18.92500
H          -5.83900        -0.03000        17.95400
H          -5.73200         1.49600        18.81200
C          -6.60200        -0.07900        19.96800
H          -6.47400        -1.14200        20.20000
H          -7.62600         0.01600        19.58100
C          -6.54400         0.70000        21.26800
O          -5.83500         1.65800        21.49400
O          -7.41200         0.19100        22.17300
C          -7.44800         0.86600        23.44000
H          -8.18700         0.33000        24.03600
H          -7.74200         1.91100        23.31200
H          -6.46700         0.83200        23.92200
C           5.72500        -0.14500        18.36800
H           5.21300         0.80300        18.23200
C           7.11200        -0.20900        18.21900
H           7.66800         0.69100        17.97000
C           7.78100        -1.42300        18.38500
H           8.85900        -1.47400        18.26600
C           7.05400        -2.57300        18.70000
H           7.56400        -3.52400        18.82600
C           5.66900        -2.50600        18.84900
H           5.10800        -3.40600        19.08700
C           4.98800        -1.29200        18.68700
C           3.49900        -1.23300        18.94400
C           3.12000        -1.15700        20.43200
H           2.03600        -1.25600        20.52100
H           3.54300        -2.04000        20.93000
C           3.55700         0.13000        21.16700
H           3.53400         0.98400        20.48100
H           2.81600         0.36100        21.94000
C           4.93200         0.04400        21.83800
H           5.72700        -0.16100        21.11300
H           4.96700        -0.78500        22.55700
C           5.29700         1.31700        22.57500
O           4.65800         2.34700        22.57400
O           6.46200         1.16600        23.24900
C           6.90800         2.32400        23.97200
H           7.84700         2.03200        24.44300
H           6.17300         2.61300        24.72900
H           7.06400         3.16700        23.29300
C          -0.46100         2.31400        15.66700
C           0.71600         2.24700        14.56600
C           1.98600         1.60500        15.02100
C           2.21900         1.22300        16.33600
C           1.14700         1.28500        17.33900
C          -0.13100         1.72000        16.99600
C          -1.27000         1.01500        17.49400
C          -2.28300         0.97300        16.42900
C          -1.74700         1.65900        15.28000
C          -1.98500         1.16100        14.00400
C          -0.90800         1.09500        12.99600
C           0.37300         1.53600        13.29700
C           1.50500         0.73600        12.90200
C           2.49200         0.78200        13.96500
C           3.27300        -0.34700        14.24900
C           3.55300        -0.70400        15.61400
C           3.04300         0.08200        16.64000
C           2.62500        -0.48000        17.95800
C           1.32400         0.19600        18.25000
C           0.20400        -0.48500        18.72300
C          -1.11400        -0.04700        18.38200
C          -2.04800        -1.21100        18.42800
C          -3.16500        -1.26000        17.26500
C          -3.11800        -0.12900        16.28500
C          -3.34100        -0.65000        14.96900
C          -2.80000        -0.01500        13.84400
C          -2.26200        -0.81000        12.75500
C          -1.09200        -0.12700        12.23800
C           0.01100        -0.87400        11.81000
C           1.34000        -0.43300        12.15400
C           2.14800        -1.60600        12.44900
C           3.08900        -1.56200        13.47700
C           3.24600        -2.68900        14.37700
C           3.53800        -2.17700        15.70100
C           3.02000        -2.81600        16.81800
C           2.60800        -2.09000        18.05700
C           1.29500        -2.70100        18.42800
C           0.18700        -1.95300        18.81000
C          -1.15000        -2.40000        18.51700
C          -1.34700        -3.55100        17.76400
C          -2.35900        -3.59500        16.69200
C          -3.14700        -2.48900        16.41400
C          -3.36400        -2.10000        15.04300
C          -2.85700        -2.86200        13.98600
C          -2.29400        -2.20300        12.82000
C          -1.14700        -2.97900        12.38000
C          -0.01400        -2.32700        11.88800
C           1.30900        -2.77900        12.27800
C           1.45000        -3.86500        13.14500
C           2.44100        -3.82300        14.21000
C           1.87600        -4.46400        15.37000
C           2.14800        -3.95000        16.64200
C           1.08900        -3.87400        17.63300
C          -0.20600        -4.30300        17.31300
C          -0.48500        -4.82500        15.98700
C           0.53200        -4.90800        15.03700
C           0.27200        -4.54100        13.65600
C          -1.00300        -4.10800        13.28100
C          -2.06500        -4.03200        14.27200
C          -1.81100        -4.38000        15.60400

